1

   Abaqus 6.14-5                                  Date 23-Nov-2020   Time 13:36:45
   For use by Supplied by Team-SolidSQUAD under license from Dassault Systemes or its subsidiary.

                                                                                 
                                                                                 
 STEP    1     INCREMENT     1     STEP TIME    0.00    


                        S T E P       1     S T A T I C   A N A L Y S I S


                                                                                          

     AUTOMATIC TIME CONTROL WITH -
          A SUGGESTED INITIAL TIME INCREMENT OF                 1.00    
          AND A TOTAL TIME PERIOD OF                            1.00    
          THE MINIMUM TIME INCREMENT ALLOWED IS                1.000E-05
          THE MAXIMUM TIME INCREMENT ALLOWED IS                 1.00    

     LINEAR EQUATION SOLVER TYPE         DIRECT SPARSE

 CONVERGENCE TOLERANCE PARAMETERS FOR FORCE    
     CRITERION FOR RESIDUAL FORCE     FOR A NONLINEAR PROBLEM          5.000E-03
     CRITERION FOR DISP.    CORRECTION IN A NONLINEAR PROBLEM          1.000E-02
     INITIAL VALUE OF TIME AVERAGE FORCE                               1.000E-02
     AVERAGE FORCE     IS TIME AVERAGE FORCE    
     ALTERNATE CRIT. FOR RESIDUAL FORCE     FOR A NONLINEAR PROBLEM    2.000E-02
     CRITERION FOR ZERO FORCE     RELATIVE TO TIME AVRG. FORCE         1.000E-05
     CRITERION FOR RESIDUAL FORCE     WHEN THERE IS ZERO FLUX          1.000E-05
     CRITERION FOR DISP.    CORRECTION WHEN THERE IS ZERO FLUX         1.000E-03
     CRITERION FOR RESIDUAL FORCE     FOR A LINEAR INCREMENT           1.000E-08
     FIELD CONVERSION RATIO                                             1.00    
     CRITERION FOR ZERO FORCE     REL. TO TIME AVRG. MAX. FORCE        1.000E-05
     CRITERION FOR ZERO DISP.    RELATIVE TO CHARACTERISTIC LENGTH     1.000E-08

     VOLUMETRIC STRAIN COMPATIBILITY TOLERANCE FOR HYBRID SOLIDS       1.000E-05
     AXIAL STRAIN COMPATIBILITY TOLERANCE FOR HYBRID BEAMS             1.000E-05
     TRANS. SHEAR STRAIN COMPATIBILITY TOLERANCE FOR HYBRID BEAMS      1.000E-05
     SOFT CONTACT CONSTRAINT COMPATIBILITY TOLERANCE FOR P>P0          5.000E-03
     SOFT CONTACT CONSTRAINT COMPATIBILITY TOLERANCE FOR P=0.0         0.100    
     CONTACT FORCE ERROR TOLERANCE FOR CONVERT SDI=YES                 1.00    
     DISPLACEMENT COMPATIBILITY TOLERANCE FOR DCOUP ELEMENTS           1.000E-05
     ROTATION COMPATIBILITY TOLERANCE FOR DCOUP ELEMENTS               1.000E-05

 EQUILIBRIUM WILL BE CHECKED FOR SEVERE DISCONTINUITY ITERATIONS

 TIME INCREMENTATION CONTROL PARAMETERS:
     FIRST EQUILIBRIUM ITERATION FOR CONSECUTIVE DIVERGENCE CHECK              4
     EQUILIBRIUM ITERATION AT WHICH LOG. CONVERGENCE RATE CHECK BEGINS         8
     EQUILIBRIUM ITERATION AFTER WHICH ALTERNATE RESIDUAL IS USED              9
     MAXIMUM EQUILIBRIUM ITERATIONS ALLOWED                                   16
     EQUILIBRIUM ITERATION COUNT FOR CUT-BACK IN NEXT INCREMENT               10
     MAXIMUM EQUILIB. ITERS IN TWO INCREMENTS FOR TIME INCREMENT INCREASE      4
     MAXIMUM ITERATIONS FOR SEVERE DISCONTINUITIES                            50
     MAXIMUM CUT-BACKS ALLOWED IN AN INCREMENT                                 5
     MAXIMUM DISCON. ITERS IN TWO INCREMENTS FOR TIME INCREMENT INCREASE      50
     MAXIMUM CONTACT AUGMENTATIONS FOR *SURFACE BEHAVIOR,AUGMENTED LAGRANGE   50
     CUT-BACK FACTOR AFTER DIVERGENCE                                 0.2500    
     CUT-BACK FACTOR FOR TOO SLOW CONVERGENCE                         0.5000    
     CUT-BACK FACTOR AFTER TOO MANY EQUILIBRIUM ITERATIONS            0.7500    
     CUT-BACK FACTOR AFTER TOO MANY SEVERE DISCONTINUITY ITERATIONS   0.2500    
     CUT-BACK FACTOR AFTER PROBLEMS IN ELEMENT ASSEMBLY               0.2500    
     INCREASE FACTOR AFTER TWO INCREMENTS THAT CONVERGE QUICKLY        1.500    
     MAX. TIME INCREMENT INCREASE FACTOR ALLOWED                       1.500    
     MAX. TIME INCREMENT INCREASE FACTOR ALLOWED (DYNAMICS)            1.250    
     MAX. TIME INCREMENT INCREASE FACTOR ALLOWED (DIFFUSION)           2.000    
     MINIMUM TIME INCREMENT RATIO FOR EXTRAPOLATION TO OCCUR          0.1000    
     MAX. RATIO OF TIME INCREMENT TO STABILITY LIMIT                   1.000    
     FRACTION OF STABILITY LIMIT FOR NEW TIME INCREMENT               0.9500    
     TIME INCREMENT INCREASE FACTOR BEFORE A TIME POINT                1.000    

 CONTACT CONTROLS APPLIED TO ALL CONTACT PAIRS:
     GLOBAL STABILIZATION CONTROL IS NOT USED
     RELATIVE PENETRATION TOLERANCE FOR AUGMENTED LAGRANGE CONTACT:
          FINITE-SLIDING SURFACE-TO-SURFACE                            5.000E-02
          OTHERWISE                                                    1.000E-03

          PRINT OF INCREMENT NUMBER, TIME, ETC., EVERY    1  INCREMENTS

     THE MAXIMUM NUMBER OF INCREMENTS IN THIS STEP IS                     100

          LARGE DISPLACEMENT THEORY WILL BE USED

          UNSYMMETRIC MATRIX STORAGE AND SOLUTION WILL BE USED

     LINEAR EXTRAPOLATION WILL BE USED

     CHARACTERISTIC ELEMENT LENGTH      2.41    

     DETAILS REGARDING ACTUAL SOLUTION WAVEFRONT REQUESTED

     DETAILED OUTPUT OF DIAGNOSTICS TO DATABASE REQUESTED

     PRINT OF INCREMENT NUMBER, TIME, ETC., TO THE MESSAGE FILE EVERY     1  INCREMENTS

     ELEMENT OPERATIONS WILL BE CARRIED OUT IN PARALLEL USING   4 PROCESSORS

     PARALLEL CONTACT TRACKING ENABLED


     COLLECTING MODEL CONSTRAINT INFORMATION FOR OVERCONSTRAINT CHECKS

     COLLECTING STEP CONSTRAINT INFORMATION FOR OVERCONSTRAINT CHECKS
 
     GPU SOLVER ACCELERATION ENABLED

  
     ASYNCHRONOUS OUTPUT DATABASE FRAME FLUSH STARTED
  


  INCREMENT     1 STARTS. ATTEMPT NUMBER  1, TIME INCREMENT   1.00    
  
     ASYNCHRONOUS TRACKING ELEMENT LOOP STARTED
  
 
     INITIAL ELEMENT LOAD BALANCE
        COMPUTE NODE   1   PROCESS    NUMBER OF ELEMENTS
                              1            74
                              2            120
                              3            28
                              4            74

  NUMBER OF EQUATIONS =     1034     NUMBER OF FLOATING PT. OPERATIONS =  9.16E+05

  USING THE DIRECT SOLVER WITH   4 PROCESSORS

     CHECK POINT   START OF SOLVER    

     CHECK POINT  END OF SOLVER       

       ELAPSED USER TIME (SEC)      =  0.10000    
       ELAPSED SYSTEM TIME (SEC)    =   0.0000    
       ELAPSED TOTAL CPU TIME (SEC) =  0.10000    
       ELAPSED WALLCLOCK TIME (SEC) =          0
 

 ***WARNING: THE SYSTEM MATRIX HAS 3 NEGATIVE EIGENVALUES.

     NEGATIVE EIGENVALUES MEAN THAT THE SYSTEM MATRIX IS NOT 
     POSITIVE DEFINITE:
     FOR EXAMPLE, A BIFURCATION (BUCKLING) LOAD MAY HAVE BEEN EXCEEDED.
  
     ASYNCHRONOUS TRACKING ELEMENT LOOP STARTED
  

                   36 SEVERE DISCONTINUITIES OCCURRED DURING THIS ITERATION.
                   33 POINTS CHANGED FROM OPEN TO CLOSED
                    3 POINTS CHANGED FROM CLOSED TO OPEN

               CONVERGENCE CHECKS FOR SEVERE DISCONTINUITY ITERATION     1

   MAX. PENETRATION ERROR 4.47903     AT NODE MERGED-BODY-1.121 OF CONTACT PAIR 
   (ASSEMBLY_SURF-CONTACT,ASSEMBLY_SURF-CONTACT)
   MAX. CONTACT FORCE ERROR 23.0018      AT NODE MERGED-BODY-1.109 OF CONTACT 
   PAIR (ASSEMBLY_SURF-CONTACT,ASSEMBLY_SURF-CONTACT)
          PENETRATION ERROR TOO LARGE COMPARED TO DISPLACEMENT INCREMENT.

 AVERAGE FORCE                      0.810       TIME AVG. FORCE       0.810    
 LARGEST RESIDUAL FORCE             -98.3       AT NODE        171   DOF  2
   INSTANCE: MERGED-BODY-1                                                                   
 LARGEST INCREMENT OF DISP.          6.88       AT NODE        376   DOF  1
   INSTANCE: MERGED-BODY-1                                                                   
 LARGEST CORRECTION TO DISP.         6.88       AT NODE        376   DOF  1
   INSTANCE: MERGED-BODY-1                                                                   
          FORCE     EQUILIBRIUM NOT ACHIEVED WITHIN TOLERANCE.

  NUMBER OF EQUATIONS =     1034     NUMBER OF FLOATING PT. OPERATIONS =  1.49E+06

  USING THE DIRECT SOLVER WITH   4 PROCESSORS

     CHECK POINT   START OF SOLVER    

     CHECK POINT  END OF SOLVER       

       ELAPSED USER TIME (SEC)      =  0.10000    
       ELAPSED SYSTEM TIME (SEC)    =   0.0000    
       ELAPSED TOTAL CPU TIME (SEC) =  0.10000    
       ELAPSED WALLCLOCK TIME (SEC) =          0
 

 ***WARNING: THE SYSTEM MATRIX HAS 27 NEGATIVE EIGENVALUES.
             EXPLANATIONS ARE SUGGESTED AFTER THE FIRST OCCURRENCE OF THIS MESSAGE.
  
     ASYNCHRONOUS TRACKING ELEMENT LOOP STARTED
  
   ELEMENT MERGED-BODY-1.145 IS DISTORTING EXCESSIVELY.
   ELEMENT MERGED-BODY-1.146 IS DISTORTING EXCESSIVELY.
   ELEMENT MERGED-BODY-1.146 IS DISTORTING EXCESSIVELY.
   ELEMENT MERGED-BODY-1.146 IS DISTORTING EXCESSIVELY.
   ELEMENT MERGED-BODY-1.147 IS DISTORTING EXCESSIVELY.
   ELEMENT MERGED-BODY-1.147 IS DISTORTING EXCESSIVELY.
   ELEMENT MERGED-BODY-1.55 IS DISTORTING EXCESSIVELY.
   ELEMENT MERGED-BODY-1.55 IS DISTORTING EXCESSIVELY.
   ELEMENT MERGED-BODY-1.55 IS DISTORTING EXCESSIVELY.
   ELEMENT MERGED-BODY-1.55 IS DISTORTING EXCESSIVELY.
   ELEMENT MERGED-BODY-1.56 IS DISTORTING EXCESSIVELY.
   ELEMENT MERGED-BODY-1.57 IS DISTORTING EXCESSIVELY.
   ELEMENT MERGED-BODY-1.57 IS DISTORTING EXCESSIVELY.
   ELEMENT MERGED-BODY-1.57 IS DISTORTING EXCESSIVELY.
   ELEMENT MERGED-BODY-1.57 IS DISTORTING EXCESSIVELY.
   ELEMENT MERGED-BODY-1.57 IS DISTORTING EXCESSIVELY.
   ELEMENT MERGED-BODY-1.57 IS DISTORTING EXCESSIVELY.
   ELEMENT MERGED-BODY-1.58 IS DISTORTING EXCESSIVELY.
   ELEMENT MERGED-BODY-1.58 IS DISTORTING EXCESSIVELY.
   ELEMENT MERGED-BODY-1.61 IS DISTORTING EXCESSIVELY.
   ELEMENT MERGED-BODY-1.61 IS DISTORTING EXCESSIVELY.
   ELEMENT MERGED-BODY-1.63 IS DISTORTING EXCESSIVELY.
   ELEMENT MERGED-BODY-1.63 IS DISTORTING EXCESSIVELY.
   ELEMENT MERGED-BODY-1.63 IS DISTORTING EXCESSIVELY.
   ELEMENT MERGED-BODY-1.63 IS DISTORTING EXCESSIVELY.
   ELEMENT MERGED-BODY-1.67 IS DISTORTING EXCESSIVELY.
   ELEMENT MERGED-BODY-1.67 IS DISTORTING EXCESSIVELY.
   ELEMENT MERGED-BODY-1.69 IS DISTORTING EXCESSIVELY.
   ELEMENT MERGED-BODY-1.69 IS DISTORTING EXCESSIVELY.
   ELEMENT MERGED-BODY-1.69 IS DISTORTING EXCESSIVELY.
   ELEMENT MERGED-BODY-1.69 IS DISTORTING EXCESSIVELY.
   ELEMENT MERGED-BODY-1.77 IS DISTORTING EXCESSIVELY.
   ELEMENT MERGED-BODY-1.77 IS DISTORTING EXCESSIVELY.
   ELEMENT MERGED-BODY-1.77 IS DISTORTING EXCESSIVELY.
   ELEMENT MERGED-BODY-1.78 IS DISTORTING EXCESSIVELY.
   ELEMENT MERGED-BODY-1.78 IS DISTORTING EXCESSIVELY.
   ELEMENT MERGED-BODY-1.78 IS DISTORTING EXCESSIVELY.
   ELEMENT MERGED-BODY-1.78 IS DISTORTING EXCESSIVELY.
   ELEMENT MERGED-BODY-1.80 IS DISTORTING EXCESSIVELY.
   ELEMENT MERGED-BODY-1.80 IS DISTORTING EXCESSIVELY.
   ELEMENT MERGED-BODY-1.80 IS DISTORTING EXCESSIVELY.
   ELEMENT MERGED-BODY-1.80 IS DISTORTING EXCESSIVELY.
   ELEMENT MERGED-BODY-1.81 IS DISTORTING EXCESSIVELY.
   ELEMENT MERGED-BODY-1.81 IS DISTORTING EXCESSIVELY.
   ELEMENT MERGED-BODY-1.81 IS DISTORTING EXCESSIVELY.
   ELEMENT MERGED-BODY-1.81 IS DISTORTING EXCESSIVELY.
   ELEMENT MERGED-BODY-1.82 IS DISTORTING EXCESSIVELY.
   ELEMENT MERGED-BODY-1.87 IS DISTORTING EXCESSIVELY.
   ELEMENT MERGED-BODY-1.87 IS DISTORTING EXCESSIVELY.
   ELEMENT MERGED-BODY-1.88 IS DISTORTING EXCESSIVELY.
   ELEMENT MERGED-BODY-1.89 IS DISTORTING EXCESSIVELY.
   ELEMENT MERGED-BODY-1.89 IS DISTORTING EXCESSIVELY.
   ELEMENT MERGED-BODY-1.89 IS DISTORTING EXCESSIVELY.
   ELEMENT MERGED-BODY-1.90 IS DISTORTING EXCESSIVELY.
   ELEMENT MERGED-BODY-1.90 IS DISTORTING EXCESSIVELY.
   ELEMENT MERGED-BODY-1.90 IS DISTORTING EXCESSIVELY.
   ELEMENT MERGED-BODY-1.90 IS DISTORTING EXCESSIVELY.
   ELEMENT MERGED-BODY-1.91 IS DISTORTING EXCESSIVELY.
   ELEMENT MERGED-BODY-1.91 IS DISTORTING EXCESSIVELY.
   ELEMENT MERGED-BODY-1.91 IS DISTORTING EXCESSIVELY.
   ELEMENT MERGED-BODY-1.91 IS DISTORTING EXCESSIVELY.
   ELEMENT MERGED-BODY-1.92 IS DISTORTING EXCESSIVELY.
   ELEMENT MERGED-BODY-1.92 IS DISTORTING EXCESSIVELY.
   ELEMENT MERGED-BODY-1.94 IS DISTORTING EXCESSIVELY.
   ELEMENT MERGED-BODY-1.94 IS DISTORTING EXCESSIVELY.
   ELEMENT MERGED-BODY-1.94 IS DISTORTING EXCESSIVELY.
   ELEMENT MERGED-BODY-1.95 IS DISTORTING EXCESSIVELY.
   ELEMENT MERGED-BODY-1.98 IS DISTORTING EXCESSIVELY.
   ELEMENT MERGED-BODY-1.98 IS DISTORTING EXCESSIVELY.
   ELEMENT MERGED-BODY-1.100 IS DISTORTING EXCESSIVELY.
   ELEMENT MERGED-BODY-1.100 IS DISTORTING EXCESSIVELY.
   ELEMENT MERGED-BODY-1.100 IS DISTORTING EXCESSIVELY.
   ELEMENT MERGED-BODY-1.100 IS DISTORTING EXCESSIVELY.
   ELEMENT MERGED-BODY-1.114 IS DISTORTING EXCESSIVELY.
   ELEMENT MERGED-BODY-1.114 IS DISTORTING EXCESSIVELY.
   ELEMENT MERGED-BODY-1.114 IS DISTORTING EXCESSIVELY.
   ELEMENT MERGED-BODY-1.114 IS DISTORTING EXCESSIVELY.
   ELEMENT MERGED-BODY-1.115 IS DISTORTING EXCESSIVELY.
   ELEMENT MERGED-BODY-1.119 IS DISTORTING EXCESSIVELY.
   ELEMENT MERGED-BODY-1.119 IS DISTORTING EXCESSIVELY.
   ELEMENT MERGED-BODY-1.119 IS DISTORTING EXCESSIVELY.
   ELEMENT MERGED-BODY-1.119 IS DISTORTING EXCESSIVELY.
   ELEMENT MERGED-BODY-1.119 IS DISTORTING EXCESSIVELY.
   ELEMENT MERGED-BODY-1.119 IS DISTORTING EXCESSIVELY.
   ELEMENT MERGED-BODY-1.121 IS DISTORTING EXCESSIVELY.
   ELEMENT MERGED-BODY-1.121 IS DISTORTING EXCESSIVELY.
   ELEMENT MERGED-BODY-1.121 IS DISTORTING EXCESSIVELY.
   ELEMENT MERGED-BODY-1.121 IS DISTORTING EXCESSIVELY.
   ELEMENT MERGED-BODY-1.121 IS DISTORTING EXCESSIVELY.
   ELEMENT MERGED-BODY-1.121 IS DISTORTING EXCESSIVELY.
   ELEMENT MERGED-BODY-1.122 IS DISTORTING EXCESSIVELY.
   ELEMENT MERGED-BODY-1.122 IS DISTORTING EXCESSIVELY.
   ELEMENT MERGED-BODY-1.122 IS DISTORTING EXCESSIVELY.
   ELEMENT MERGED-BODY-1.122 IS DISTORTING EXCESSIVELY.
   ELEMENT MERGED-BODY-1.122 IS DISTORTING EXCESSIVELY.
   ELEMENT MERGED-BODY-1.122 IS DISTORTING EXCESSIVELY.
   ELEMENT MERGED-BODY-1.124 IS DISTORTING EXCESSIVELY.
   ELEMENT MERGED-BODY-1.124 IS DISTORTING EXCESSIVELY.
   ELEMENT MERGED-BODY-1.125 IS DISTORTING EXCESSIVELY.
   ELEMENT MERGED-BODY-1.125 IS DISTORTING EXCESSIVELY.
   ELEMENT MERGED-BODY-1.127 IS DISTORTING EXCESSIVELY.
   ELEMENT MERGED-BODY-1.127 IS DISTORTING EXCESSIVELY.
   ELEMENT MERGED-BODY-1.49 IS DISTORTING EXCESSIVELY.
   ELEMENT MERGED-BODY-1.53 IS DISTORTING EXCESSIVELY.
   ELEMENT MERGED-BODY-1.53 IS DISTORTING EXCESSIVELY.
   ELEMENT MERGED-BODY-1.53 IS DISTORTING EXCESSIVELY.
   ELEMENT MERGED-BODY-1.53 IS DISTORTING EXCESSIVELY.
   ELEMENT MERGED-BODY-1.53 IS DISTORTING EXCESSIVELY.
   ELEMENT MERGED-BODY-1.54 IS DISTORTING EXCESSIVELY.
   ELEMENT MERGED-BODY-1.54 IS DISTORTING EXCESSIVELY.
   ELEMENT MERGED-BODY-1.54 IS DISTORTING EXCESSIVELY.
   ELEMENT MERGED-BODY-1.54 IS DISTORTING EXCESSIVELY.

 ***WARNING: THE STRAINS ARE SO LARGE THAT THE PROGRAM WILL NOT ATTEMPT THE 
             HYPERELASTICITY CALCULATION AT 65 POINTS
 

 ***NOTE: MATERIAL CALCULATIONS FAILED TO CONVERGE OR WERE NOT ATTEMPTED AT ONE 
          OR MORE POINTS. CONVERGENCE IS JUDGED UNLIKELY.


  INCREMENT     1 STARTS. ATTEMPT NUMBER  2, TIME INCREMENT  0.250    
  
     ASYNCHRONOUS TRACKING ELEMENT LOOP STARTED
  
 
     INITIAL ELEMENT LOAD BALANCE
        COMPUTE NODE   1   PROCESS    NUMBER OF ELEMENTS
                              1            74
                              2            74
                              3            74
                              4            74

  NUMBER OF EQUATIONS =     1034     NUMBER OF FLOATING PT. OPERATIONS =  1.45E+06

  USING THE DIRECT SOLVER WITH   4 PROCESSORS

     CHECK POINT   START OF SOLVER    

     CHECK POINT  END OF SOLVER       

       ELAPSED USER TIME (SEC)      =  0.10000    
       ELAPSED SYSTEM TIME (SEC)    =   0.0000    
       ELAPSED TOTAL CPU TIME (SEC) =  0.10000    
       ELAPSED WALLCLOCK TIME (SEC) =          0
  
     ASYNCHRONOUS TRACKING ELEMENT LOOP STARTED
  

                   18 SEVERE DISCONTINUITIES OCCURRED DURING THIS ITERATION.
                   13 POINTS CHANGED FROM OPEN TO CLOSED
                    5 POINTS CHANGED FROM CLOSED TO OPEN

               CONVERGENCE CHECKS FOR SEVERE DISCONTINUITY ITERATION     1

   MAX. PENETRATION ERROR 368.141E-03   AT NODE MERGED-BODY-1.390 OF CONTACT 
   PAIR (ASSEMBLY_SURF-CONTACT,ASSEMBLY_SURF-CONTACT)
   MAX. CONTACT FORCE ERROR 2.17325     AT NODE MERGED-BODY-1.390 OF CONTACT 
   PAIR (ASSEMBLY_SURF-CONTACT,ASSEMBLY_SURF-CONTACT)
          PENETRATION ERROR TOO LARGE COMPARED TO DISPLACEMENT INCREMENT.

 AVERAGE FORCE                      1.219E-02   TIME AVG. FORCE       1.219E-02
 LARGEST RESIDUAL FORCE             -1.72       AT NODE        183   DOF  2
   INSTANCE: MERGED-BODY-1                                                                   
 LARGEST INCREMENT OF DISP.          1.07       AT NODE        376   DOF  1
   INSTANCE: MERGED-BODY-1                                                                   
 LARGEST CORRECTION TO DISP.         1.07       AT NODE        376   DOF  1
   INSTANCE: MERGED-BODY-1                                                                   
          FORCE     EQUILIBRIUM NOT ACHIEVED WITHIN TOLERANCE.

  NUMBER OF EQUATIONS =     1034     NUMBER OF FLOATING PT. OPERATIONS =  1.55E+06

  USING THE DIRECT SOLVER WITH   4 PROCESSORS

     CHECK POINT   START OF SOLVER    

     CHECK POINT  END OF SOLVER       

       ELAPSED USER TIME (SEC)      =  0.10000    
       ELAPSED SYSTEM TIME (SEC)    =   0.0000    
       ELAPSED TOTAL CPU TIME (SEC) =  0.10000    
       ELAPSED WALLCLOCK TIME (SEC) =          0
 

 ***WARNING: THE SYSTEM MATRIX HAS 6 NEGATIVE EIGENVALUES.
             EXPLANATIONS ARE SUGGESTED AFTER THE FIRST OCCURRENCE OF THIS MESSAGE.
  
     ASYNCHRONOUS TRACKING ELEMENT LOOP STARTED
  

                   18 SEVERE DISCONTINUITIES OCCURRED DURING THIS ITERATION.
                    3 POINTS CHANGED FROM OPEN TO CLOSED
                    6 POINTS CHANGED FROM CLOSED TO OPEN
                    9 POINTS CHANGED FROM STICKING TO SLIPPING

               CONVERGENCE CHECKS FOR SEVERE DISCONTINUITY ITERATION     2

   MAX. PENETRATION ERROR 3.12889E-03 AT NODE MERGED-BODY-1.122 OF CONTACT PAIR 
   (ASSEMBLY_SURF-CONTACT,ASSEMBLY_SURF-CONTACT)
   MAX. CONTACT FORCE ERROR -41.3507E-03  AT NODE MERGED-BODY-1.390 OF CONTACT 
   PAIR (ASSEMBLY_SURF-CONTACT,ASSEMBLY_SURF-CONTACT)
          THE ESTIMATED CONTACT FORCE ERROR IS OUTSIDE OF CONVERGENCE TOLERANCES.

 AVERAGE FORCE                      2.002E-03   TIME AVG. FORCE       2.002E-03
 LARGEST RESIDUAL FORCE            -6.169E-02   AT NODE         65   DOF  2
   INSTANCE: MERGED-BODY-1                                                                   
 LARGEST INCREMENT OF DISP.         0.961       AT NODE        376   DOF  1
   INSTANCE: MERGED-BODY-1                                                                   
 LARGEST CORRECTION TO DISP.        0.278       AT NODE         91   DOF  1
   INSTANCE: MERGED-BODY-1                                                                   
          FORCE     EQUILIBRIUM NOT ACHIEVED WITHIN TOLERANCE.

  NUMBER OF EQUATIONS =     1034     NUMBER OF FLOATING PT. OPERATIONS =  1.58E+06

  USING THE DIRECT SOLVER WITH   4 PROCESSORS

     CHECK POINT   START OF SOLVER    

     CHECK POINT  END OF SOLVER       

       ELAPSED USER TIME (SEC)      =   0.0000    
       ELAPSED SYSTEM TIME (SEC)    =   0.0000    
       ELAPSED TOTAL CPU TIME (SEC) =   0.0000    
       ELAPSED WALLCLOCK TIME (SEC) =          0
 

 ***WARNING: THE SYSTEM MATRIX HAS 1 NEGATIVE EIGENVALUES.
             EXPLANATIONS ARE SUGGESTED AFTER THE FIRST OCCURRENCE OF THIS MESSAGE.
  
     ASYNCHRONOUS TRACKING ELEMENT LOOP STARTED
  

                    8 SEVERE DISCONTINUITIES OCCURRED DURING THIS ITERATION.
                    3 POINTS CHANGED FROM OPEN TO CLOSED
                    5 POINTS CHANGED FROM CLOSED TO OPEN

               CONVERGENCE CHECKS FOR SEVERE DISCONTINUITY ITERATION     3

   MAX. PENETRATION ERROR -38.3539E-03  AT NODE MERGED-BODY-1.122 OF CONTACT 
   PAIR (ASSEMBLY_SURF-CONTACT,ASSEMBLY_SURF-CONTACT)
   MAX. CONTACT FORCE ERROR -185.571E-03   AT NODE MERGED-BODY-1.122 OF CONTACT 
   PAIR (ASSEMBLY_SURF-CONTACT,ASSEMBLY_SURF-CONTACT)
          PENETRATION ERROR TOO LARGE COMPARED TO DISPLACEMENT INCREMENT.

 AVERAGE FORCE                      4.090E-03   TIME AVG. FORCE       4.090E-03
 LARGEST RESIDUAL FORCE             0.456       AT NODE        172   DOF  2
   INSTANCE: MERGED-BODY-1                                                                   
 LARGEST INCREMENT OF DISP.         0.823       AT NODE         84   DOF  1
   INSTANCE: MERGED-BODY-1                                                                   
 LARGEST CORRECTION TO DISP.       -0.308       AT NODE        240   DOF  2
   INSTANCE: MERGED-BODY-1                                                                   
          FORCE     EQUILIBRIUM NOT ACHIEVED WITHIN TOLERANCE.

  NUMBER OF EQUATIONS =     1034     NUMBER OF FLOATING PT. OPERATIONS =  1.56E+06

  USING THE DIRECT SOLVER WITH   4 PROCESSORS

     CHECK POINT   START OF SOLVER    

     CHECK POINT  END OF SOLVER       

       ELAPSED USER TIME (SEC)      =   0.0000    
       ELAPSED SYSTEM TIME (SEC)    =   0.0000    
       ELAPSED TOTAL CPU TIME (SEC) =   0.0000    
       ELAPSED WALLCLOCK TIME (SEC) =          1
 

 ***WARNING: THE SYSTEM MATRIX HAS 1 NEGATIVE EIGENVALUES.
             EXPLANATIONS ARE SUGGESTED AFTER THE FIRST OCCURRENCE OF THIS MESSAGE.
  
     ASYNCHRONOUS TRACKING ELEMENT LOOP STARTED
  

                   10 SEVERE DISCONTINUITIES OCCURRED DURING THIS ITERATION.
                    4 POINTS CHANGED FROM OPEN TO CLOSED
                    5 POINTS CHANGED FROM CLOSED TO OPEN
                    1 POINTS CHANGED FROM STICKING TO SLIPPING

               CONVERGENCE CHECKS FOR SEVERE DISCONTINUITY ITERATION     4

   MAX. PENETRATION ERROR -31.6252E-03  AT NODE MERGED-BODY-1.390 OF CONTACT 
   PAIR (ASSEMBLY_SURF-CONTACT,ASSEMBLY_SURF-CONTACT)
   MAX. CONTACT FORCE ERROR -184.487E-03   AT NODE MERGED-BODY-1.390 OF CONTACT 
   PAIR (ASSEMBLY_SURF-CONTACT,ASSEMBLY_SURF-CONTACT)
          PENETRATION ERROR TOO LARGE COMPARED TO DISPLACEMENT INCREMENT.

 AVERAGE FORCE                      2.742E-03   TIME AVG. FORCE       2.742E-03
 LARGEST RESIDUAL FORCE            -0.205       AT NODE         58   DOF  2
   INSTANCE: MERGED-BODY-1                                                                   
 LARGEST INCREMENT OF DISP.         0.840       AT NODE        376   DOF  1
   INSTANCE: MERGED-BODY-1                                                                   
 LARGEST CORRECTION TO DISP.        0.266       AT NODE        240   DOF  2
   INSTANCE: MERGED-BODY-1                                                                   
          FORCE     EQUILIBRIUM NOT ACHIEVED WITHIN TOLERANCE.

  NUMBER OF EQUATIONS =     1034     NUMBER OF FLOATING PT. OPERATIONS =  1.58E+06

  USING THE DIRECT SOLVER WITH   4 PROCESSORS

     CHECK POINT   START OF SOLVER    

     CHECK POINT  END OF SOLVER       

       ELAPSED USER TIME (SEC)      =   0.0000    
       ELAPSED SYSTEM TIME (SEC)    =   0.0000    
       ELAPSED TOTAL CPU TIME (SEC) =   0.0000    
       ELAPSED WALLCLOCK TIME (SEC) =          0
 

 ***WARNING: THE SYSTEM MATRIX HAS 1 NEGATIVE EIGENVALUES.
             EXPLANATIONS ARE SUGGESTED AFTER THE FIRST OCCURRENCE OF THIS MESSAGE.
  
     ASYNCHRONOUS TRACKING ELEMENT LOOP STARTED
  

                   10 SEVERE DISCONTINUITIES OCCURRED DURING THIS ITERATION.
                    5 POINTS CHANGED FROM OPEN TO CLOSED
                    5 POINTS CHANGED FROM CLOSED TO OPEN

               CONVERGENCE CHECKS FOR SEVERE DISCONTINUITY ITERATION     5

   MAX. PENETRATION ERROR 48.1544E-03  AT NODE MERGED-BODY-1.122 OF CONTACT 
   PAIR (ASSEMBLY_SURF-CONTACT,ASSEMBLY_SURF-CONTACT)
   MAX. CONTACT FORCE ERROR 290.206E-03   AT NODE MERGED-BODY-1.122 OF CONTACT 
   PAIR (ASSEMBLY_SURF-CONTACT,ASSEMBLY_SURF-CONTACT)
          PENETRATION ERROR TOO LARGE COMPARED TO DISPLACEMENT INCREMENT.

 AVERAGE FORCE                      1.403E-03   TIME AVG. FORCE       1.403E-03
 LARGEST RESIDUAL FORCE            -8.711E-03   AT NODE         57   DOF  2
   INSTANCE: MERGED-BODY-1                                                                   
 LARGEST INCREMENT OF DISP.         0.851       AT NODE        376   DOF  1
   INSTANCE: MERGED-BODY-1                                                                   
 LARGEST CORRECTION TO DISP.        0.114       AT NODE        231   DOF  1
   INSTANCE: MERGED-BODY-1                                                                   
          FORCE     EQUILIBRIUM NOT ACHIEVED WITHIN TOLERANCE.

  NUMBER OF EQUATIONS =     1034     NUMBER OF FLOATING PT. OPERATIONS =  1.55E+06

  USING THE DIRECT SOLVER WITH   4 PROCESSORS

     CHECK POINT   START OF SOLVER    

     CHECK POINT  END OF SOLVER       

       ELAPSED USER TIME (SEC)      =   0.0000    
       ELAPSED SYSTEM TIME (SEC)    =   0.0000    
       ELAPSED TOTAL CPU TIME (SEC) =   0.0000    
       ELAPSED WALLCLOCK TIME (SEC) =          0
 

 ***WARNING: THE SYSTEM MATRIX HAS 3 NEGATIVE EIGENVALUES.
             EXPLANATIONS ARE SUGGESTED AFTER THE FIRST OCCURRENCE OF THIS MESSAGE.
  
     ASYNCHRONOUS TRACKING ELEMENT LOOP STARTED
  

                    7 SEVERE DISCONTINUITIES OCCURRED DURING THIS ITERATION.
                    1 POINTS CHANGED FROM OPEN TO CLOSED
                    6 POINTS CHANGED FROM CLOSED TO OPEN

               CONVERGENCE CHECKS FOR SEVERE DISCONTINUITY ITERATION     6

   MAX. PENETRATION ERROR 915.722E-06   AT NODE MERGED-BODY-1.386 OF CONTACT 
   PAIR (ASSEMBLY_SURF-CONTACT,ASSEMBLY_SURF-CONTACT)
   MAX. CONTACT FORCE ERROR -8.97258E-03 AT NODE BASE-C.39 OF CONTACT PAIR 
   (ASSEMBLY_BASE-C_TOP-SUF-BASEC,ASSEMBLY_MERGED-BODY-1_SURF-BOT-MER)
          THE ESTIMATED CONTACT FORCE ERROR IS OUTSIDE OF CONVERGENCE TOLERANCES.

 AVERAGE FORCE                      1.840E-03   TIME AVG. FORCE       1.840E-03
 LARGEST RESIDUAL FORCE            -0.207       AT NODE        183   DOF  2
   INSTANCE: MERGED-BODY-1                                                                   
 LARGEST INCREMENT OF DISP.         0.900       AT NODE        376   DOF  1
   INSTANCE: MERGED-BODY-1                                                                   
 LARGEST CORRECTION TO DISP.       -5.086E-02   AT NODE        231   DOF  1
   INSTANCE: MERGED-BODY-1                                                                   
          FORCE     EQUILIBRIUM NOT ACHIEVED WITHIN TOLERANCE.

  NUMBER OF EQUATIONS =     1034     NUMBER OF FLOATING PT. OPERATIONS =  1.51E+06

  USING THE DIRECT SOLVER WITH   4 PROCESSORS

     CHECK POINT   START OF SOLVER    

     CHECK POINT  END OF SOLVER       

       ELAPSED USER TIME (SEC)      =  0.10000    
       ELAPSED SYSTEM TIME (SEC)    =   0.0000    
       ELAPSED TOTAL CPU TIME (SEC) =  0.10000    
       ELAPSED WALLCLOCK TIME (SEC) =          0
  
     ASYNCHRONOUS TRACKING ELEMENT LOOP STARTED
  

                    6 SEVERE DISCONTINUITIES OCCURRED DURING THIS ITERATION.
                    4 POINTS CHANGED FROM OPEN TO CLOSED
                    2 POINTS CHANGED FROM CLOSED TO OPEN

               CONVERGENCE CHECKS FOR SEVERE DISCONTINUITY ITERATION     7

   MAX. PENETRATION ERROR 4.66439E-03 AT NODE MERGED-BODY-1.113 OF CONTACT PAIR 
   (ASSEMBLY_SURF-CONTACT,ASSEMBLY_SURF-CONTACT)
   MAX. CONTACT FORCE ERROR 27.8952E-03  AT NODE MERGED-BODY-1.113 OF CONTACT 
   PAIR (ASSEMBLY_SURF-CONTACT,ASSEMBLY_SURF-CONTACT)
          PENETRATION ERROR TOO LARGE COMPARED TO DISPLACEMENT INCREMENT.

 AVERAGE FORCE                      1.345E-03   TIME AVG. FORCE       1.345E-03
 LARGEST RESIDUAL FORCE             4.505E-03   AT NODE        180   DOF  2
   INSTANCE: MERGED-BODY-1                                                                   
 LARGEST INCREMENT OF DISP.         0.906       AT NODE        376   DOF  1
   INSTANCE: MERGED-BODY-1                                                                   
 LARGEST CORRECTION TO DISP.        0.245       AT NODE        282   DOF  1
   INSTANCE: MERGED-BODY-1                                                                   
          FORCE     EQUILIBRIUM NOT ACHIEVED WITHIN TOLERANCE.

  NUMBER OF EQUATIONS =     1034     NUMBER OF FLOATING PT. OPERATIONS =  1.55E+06

  USING THE DIRECT SOLVER WITH   4 PROCESSORS

     CHECK POINT   START OF SOLVER    

     CHECK POINT  END OF SOLVER       

       ELAPSED USER TIME (SEC)      =   0.0000    
       ELAPSED SYSTEM TIME (SEC)    =   0.0000    
       ELAPSED TOTAL CPU TIME (SEC) =   0.0000    
       ELAPSED WALLCLOCK TIME (SEC) =          0
 

 ***WARNING: THE SYSTEM MATRIX HAS 3 NEGATIVE EIGENVALUES.
             EXPLANATIONS ARE SUGGESTED AFTER THE FIRST OCCURRENCE OF THIS MESSAGE.
  
     ASYNCHRONOUS TRACKING ELEMENT LOOP STARTED
  

                    6 SEVERE DISCONTINUITIES OCCURRED DURING THIS ITERATION.
                    1 POINTS CHANGED FROM OPEN TO CLOSED
                    5 POINTS CHANGED FROM CLOSED TO OPEN

               CONVERGENCE CHECKS FOR SEVERE DISCONTINUITY ITERATION     8

   MAX. PENETRATION ERROR 963.201E-06   AT NODE MERGED-BODY-1.386 OF CONTACT 
   PAIR (ASSEMBLY_SURF-CONTACT,ASSEMBLY_SURF-CONTACT)
   MAX. CONTACT FORCE ERROR -10.3734E-03  AT NODE MERGED-BODY-1.113 OF CONTACT 
   PAIR (ASSEMBLY_SURF-CONTACT,ASSEMBLY_SURF-CONTACT)
          THE ESTIMATED CONTACT FORCE ERROR IS OUTSIDE OF CONVERGENCE TOLERANCES.

 AVERAGE FORCE                      1.356E-03   TIME AVG. FORCE       1.356E-03
 LARGEST RESIDUAL FORCE             8.100E-03   AT NODE        180   DOF  2
   INSTANCE: MERGED-BODY-1                                                                   
 LARGEST INCREMENT OF DISP.         0.914       AT NODE        376   DOF  1
   INSTANCE: MERGED-BODY-1                                                                   
 LARGEST CORRECTION TO DISP.       -8.817E-02   AT NODE        282   DOF  1
   INSTANCE: MERGED-BODY-1                                                                   
          FORCE     EQUILIBRIUM NOT ACHIEVED WITHIN TOLERANCE.

  NUMBER OF EQUATIONS =     1034     NUMBER OF FLOATING PT. OPERATIONS =  1.50E+06

  USING THE DIRECT SOLVER WITH   4 PROCESSORS

     CHECK POINT   START OF SOLVER    

     CHECK POINT  END OF SOLVER       

       ELAPSED USER TIME (SEC)      =   0.0000    
       ELAPSED SYSTEM TIME (SEC)    =   0.0000    
       ELAPSED TOTAL CPU TIME (SEC) =   0.0000    
       ELAPSED WALLCLOCK TIME (SEC) =          0
  
     ASYNCHRONOUS TRACKING ELEMENT LOOP STARTED
  

                    5 SEVERE DISCONTINUITIES OCCURRED DURING THIS ITERATION.
                    4 POINTS CHANGED FROM OPEN TO CLOSED
                    1 POINTS CHANGED FROM CLOSED TO OPEN

               CONVERGENCE CHECKS FOR SEVERE DISCONTINUITY ITERATION     9

   MAX. PENETRATION ERROR 3.36495E-03 AT NODE MERGED-BODY-1.388 OF CONTACT PAIR 
   (ASSEMBLY_SURF-CONTACT,ASSEMBLY_SURF-CONTACT)
   MAX. CONTACT FORCE ERROR 19.9955E-03  AT NODE MERGED-BODY-1.388 OF CONTACT 
   PAIR (ASSEMBLY_SURF-CONTACT,ASSEMBLY_SURF-CONTACT)
          THE ESTIMATED CONTACT FORCE ERROR IS OUTSIDE OF CONVERGENCE TOLERANCES.

 AVERAGE FORCE                      1.371E-03   TIME AVG. FORCE       1.371E-03
 LARGEST RESIDUAL FORCE             9.752E-03   AT NODE        180   DOF  2
   INSTANCE: MERGED-BODY-1                                                                   
 LARGEST INCREMENT OF DISP.         0.919       AT NODE        376   DOF  1
   INSTANCE: MERGED-BODY-1                                                                   
 LARGEST CORRECTION TO DISP.        5.103E-02   AT NODE         37   DOF  1
   INSTANCE: MERGED-BODY-1                                                                   
          FORCE     EQUILIBRIUM NOT ACHIEVED WITHIN TOLERANCE.

  NUMBER OF EQUATIONS =     1034     NUMBER OF FLOATING PT. OPERATIONS =  1.55E+06

  USING THE DIRECT SOLVER WITH   4 PROCESSORS

     CHECK POINT   START OF SOLVER    

     CHECK POINT  END OF SOLVER       

       ELAPSED USER TIME (SEC)      =  0.20000    
       ELAPSED SYSTEM TIME (SEC)    =   0.0000    
       ELAPSED TOTAL CPU TIME (SEC) =  0.20000    
       ELAPSED WALLCLOCK TIME (SEC) =          0
 

 ***WARNING: THE SYSTEM MATRIX HAS 3 NEGATIVE EIGENVALUES.
             EXPLANATIONS ARE SUGGESTED AFTER THE FIRST OCCURRENCE OF THIS MESSAGE.
  
     ASYNCHRONOUS TRACKING ELEMENT LOOP STARTED
  

                    5 SEVERE DISCONTINUITIES OCCURRED DURING THIS ITERATION.
                    1 POINTS CHANGED FROM OPEN TO CLOSED
                    4 POINTS CHANGED FROM CLOSED TO OPEN

               CONVERGENCE CHECKS FOR SEVERE DISCONTINUITY ITERATION    10

   MAX. PENETRATION ERROR 937.555E-06   AT NODE MERGED-BODY-1.386 OF CONTACT 
   PAIR (ASSEMBLY_SURF-CONTACT,ASSEMBLY_SURF-CONTACT)
   MAX. CONTACT FORCE ERROR -8.83484E-03 AT NODE MERGED-BODY-1.113 OF CONTACT 
   PAIR (ASSEMBLY_SURF-CONTACT,ASSEMBLY_SURF-CONTACT)
          THE ESTIMATED CONTACT FORCE ERROR IS OUTSIDE OF CONVERGENCE TOLERANCES.

 AVERAGE FORCE                      1.356E-03   TIME AVG. FORCE       1.356E-03
 LARGEST RESIDUAL FORCE            -6.061E-03   AT NODE        114   DOF  1
   INSTANCE: MERGED-BODY-1                                                                   
 LARGEST INCREMENT OF DISP.         0.921       AT NODE        376   DOF  1
   INSTANCE: MERGED-BODY-1                                                                   
 LARGEST CORRECTION TO DISP.       -5.798E-02   AT NODE         37   DOF  1
   INSTANCE: MERGED-BODY-1                                                                   
          FORCE     EQUILIBRIUM NOT ACHIEVED WITHIN TOLERANCE.

  NUMBER OF EQUATIONS =     1034     NUMBER OF FLOATING PT. OPERATIONS =  1.50E+06

  USING THE DIRECT SOLVER WITH   4 PROCESSORS

     CHECK POINT   START OF SOLVER    

     CHECK POINT  END OF SOLVER       

       ELAPSED USER TIME (SEC)      =   0.0000    
       ELAPSED SYSTEM TIME (SEC)    =   0.0000    
       ELAPSED TOTAL CPU TIME (SEC) =   0.0000    
       ELAPSED WALLCLOCK TIME (SEC) =          0
  
     ASYNCHRONOUS TRACKING ELEMENT LOOP STARTED
  

                    5 SEVERE DISCONTINUITIES OCCURRED DURING THIS ITERATION.
                    4 POINTS CHANGED FROM OPEN TO CLOSED
                    1 POINTS CHANGED FROM CLOSED TO OPEN

               CONVERGENCE CHECKS FOR SEVERE DISCONTINUITY ITERATION    11

   MAX. PENETRATION ERROR 3.42947E-03 AT NODE MERGED-BODY-1.388 OF CONTACT PAIR 
   (ASSEMBLY_SURF-CONTACT,ASSEMBLY_SURF-CONTACT)
   MAX. CONTACT FORCE ERROR 20.3796E-03  AT NODE MERGED-BODY-1.388 OF CONTACT 
   PAIR (ASSEMBLY_SURF-CONTACT,ASSEMBLY_SURF-CONTACT)
          THE ESTIMATED CONTACT FORCE ERROR IS OUTSIDE OF CONVERGENCE TOLERANCES.

 AVERAGE FORCE                      1.353E-03   TIME AVG. FORCE       1.353E-03
 LARGEST RESIDUAL FORCE            -1.475E-03   AT NODE         64   DOF  2
   INSTANCE: MERGED-BODY-1                                                                   
 LARGEST INCREMENT OF DISP.         0.919       AT NODE        376   DOF  1
   INSTANCE: MERGED-BODY-1                                                                   
 LARGEST CORRECTION TO DISP.        6.093E-02   AT NODE         37   DOF  1
   INSTANCE: MERGED-BODY-1                                                                   
          FORCE     EQUILIBRIUM NOT ACHIEVED WITHIN TOLERANCE.
 

 ***NOTE: THE SOLUTION APPEARS TO BE DIVERGING. CONVERGENCE IS JUDGED UNLIKELY.


  INCREMENT     1 STARTS. ATTEMPT NUMBER  3, TIME INCREMENT  6.250E-02
  
     ASYNCHRONOUS TRACKING ELEMENT LOOP STARTED
  
 
     INITIAL ELEMENT LOAD BALANCE
        COMPUTE NODE   1   PROCESS    NUMBER OF ELEMENTS
                              1            74
                              2            74
                              3            74
                              4            74

  NUMBER OF EQUATIONS =     1034     NUMBER OF FLOATING PT. OPERATIONS =  1.45E+06

  USING THE DIRECT SOLVER WITH   4 PROCESSORS

     CHECK POINT   START OF SOLVER    

     CHECK POINT  END OF SOLVER       

       ELAPSED USER TIME (SEC)      =   0.0000    
       ELAPSED SYSTEM TIME (SEC)    =   0.0000    
       ELAPSED TOTAL CPU TIME (SEC) =   0.0000    
       ELAPSED WALLCLOCK TIME (SEC) =          0
  
     ASYNCHRONOUS TRACKING ELEMENT LOOP STARTED
  

                    6 SEVERE DISCONTINUITIES OCCURRED DURING THIS ITERATION.
                    1 POINTS CHANGED FROM OPEN TO CLOSED
                    5 POINTS CHANGED FROM CLOSED TO OPEN

               CONVERGENCE CHECKS FOR SEVERE DISCONTINUITY ITERATION     1

   MAX. PENETRATION ERROR 134.107E-09   AT NODE BASE-C.47 OF CONTACT PAIR 
   (ASSEMBLY_BASE-C_TOP-SUF-BASEC,ASSEMBLY_MERGED-BODY-1_SURF-BOT-MER)
   MAX. CONTACT FORCE ERROR -3.09991E-03 AT NODE BASE-C.12 OF CONTACT PAIR 
   (ASSEMBLY_BASE-C_TOP-SUF-BASEC,ASSEMBLY_MERGED-BODY-1_SURF-BOT-MER)
          THE ESTIMATED CONTACT FORCE ERROR IS OUTSIDE OF CONVERGENCE TOLERANCES.

 AVERAGE FORCE                      8.406E-04   TIME AVG. FORCE       8.406E-04
 LARGEST RESIDUAL FORCE            -9.230E-02   AT NODE        183   DOF  2
   INSTANCE: MERGED-BODY-1                                                                   
 LARGEST INCREMENT OF DISP.         0.258       AT NODE        376   DOF  1
   INSTANCE: MERGED-BODY-1                                                                   
 LARGEST CORRECTION TO DISP.        0.258       AT NODE        376   DOF  1
   INSTANCE: MERGED-BODY-1                                                                   
          FORCE     EQUILIBRIUM NOT ACHIEVED WITHIN TOLERANCE.

  NUMBER OF EQUATIONS =     1034     NUMBER OF FLOATING PT. OPERATIONS =  1.42E+06

  USING THE DIRECT SOLVER WITH   4 PROCESSORS

     CHECK POINT   START OF SOLVER    

     CHECK POINT  END OF SOLVER       

       ELAPSED USER TIME (SEC)      =   0.0000    
       ELAPSED SYSTEM TIME (SEC)    =   0.0000    
       ELAPSED TOTAL CPU TIME (SEC) =   0.0000    
       ELAPSED WALLCLOCK TIME (SEC) =          0
  
     ASYNCHRONOUS TRACKING ELEMENT LOOP STARTED
  

                    4 SEVERE DISCONTINUITIES OCCURRED DURING THIS ITERATION.
                    3 POINTS CHANGED FROM OPEN TO CLOSED
                    1 POINTS CHANGED FROM CLOSED TO OPEN

               CONVERGENCE CHECKS FOR SEVERE DISCONTINUITY ITERATION     2

   MAX. PENETRATION ERROR 289.134E-06   AT NODE BASE-C.14 OF CONTACT PAIR 
   (ASSEMBLY_BASE-C_TOP-SUF-BASEC,ASSEMBLY_MERGED-BODY-1_SURF-BOT-MER)
   MAX. CONTACT FORCE ERROR -3.19291E-03 AT NODE BASE-C.13 OF CONTACT PAIR 
   (ASSEMBLY_BASE-C_TOP-SUF-BASEC,ASSEMBLY_MERGED-BODY-1_SURF-BOT-MER)
          THE ESTIMATED CONTACT FORCE ERROR IS OUTSIDE OF CONVERGENCE TOLERANCES.

 AVERAGE FORCE                      4.140E-04   TIME AVG. FORCE       4.140E-04
 LARGEST RESIDUAL FORCE            -2.131E-03   AT NODE         13   DOF  2
   INSTANCE: BASE-C                                                                          
 LARGEST INCREMENT OF DISP.         0.243       AT NODE        376   DOF  1
   INSTANCE: MERGED-BODY-1                                                                   
 LARGEST CORRECTION TO DISP.        2.585E-02   AT NODE        352   DOF  1
   INSTANCE: MERGED-BODY-1                                                                   
          FORCE     EQUILIBRIUM NOT ACHIEVED WITHIN TOLERANCE.

  NUMBER OF EQUATIONS =     1034     NUMBER OF FLOATING PT. OPERATIONS =  1.44E+06

  USING THE DIRECT SOLVER WITH   4 PROCESSORS

     CHECK POINT   START OF SOLVER    

     CHECK POINT  END OF SOLVER       

       ELAPSED USER TIME (SEC)      =   0.0000    
       ELAPSED SYSTEM TIME (SEC)    =   0.0000    
       ELAPSED TOTAL CPU TIME (SEC) =   0.0000    
       ELAPSED WALLCLOCK TIME (SEC) =          0
  
     ASYNCHRONOUS TRACKING ELEMENT LOOP STARTED
  

                    9 SEVERE DISCONTINUITIES OCCURRED DURING THIS ITERATION.
                    2 POINTS CHANGED FROM CLOSED TO OPEN
                    7 POINTS CHANGED FROM STICKING TO SLIPPING

               CONVERGENCE CHECKS FOR SEVERE DISCONTINUITY ITERATION     3

   MAX. PENETRATION ERROR -1.54514E-06 AT NODE BASE-C.14 OF CONTACT PAIR 
   (ASSEMBLY_BASE-C_TOP-SUF-BASEC,ASSEMBLY_MERGED-BODY-1_SURF-BOT-MER)
   MAX. CONTACT FORCE ERROR -5.10112E-03 AT NODE BASE-C.31 OF CONTACT PAIR 
   (ASSEMBLY_BASE-C_TOP-SUF-BASEC,ASSEMBLY_MERGED-BODY-1_SURF-BOT-MER)
          THE ESTIMATED CONTACT FORCE ERROR IS OUTSIDE OF CONVERGENCE TOLERANCES.

 AVERAGE FORCE                      4.065E-04   TIME AVG. FORCE       4.065E-04
 LARGEST RESIDUAL FORCE             3.589E-03   AT NODE         76   DOF  2
   INSTANCE: MERGED-BODY-1                                                                   
 LARGEST INCREMENT OF DISP.         0.244       AT NODE        376   DOF  1
   INSTANCE: MERGED-BODY-1                                                                   
 LARGEST CORRECTION TO DISP.        6.404E-03   AT NODE        282   DOF  1
   INSTANCE: MERGED-BODY-1                                                                   
          FORCE     EQUILIBRIUM NOT ACHIEVED WITHIN TOLERANCE.

  NUMBER OF EQUATIONS =     1034     NUMBER OF FLOATING PT. OPERATIONS =  1.44E+06

  USING THE DIRECT SOLVER WITH   4 PROCESSORS

     CHECK POINT   START OF SOLVER    

     CHECK POINT  END OF SOLVER       

       ELAPSED USER TIME (SEC)      =  0.10000    
       ELAPSED SYSTEM TIME (SEC)    =   0.0000    
       ELAPSED TOTAL CPU TIME (SEC) =  0.10000    
       ELAPSED WALLCLOCK TIME (SEC) =          0
  
     ASYNCHRONOUS TRACKING ELEMENT LOOP STARTED
  

                    3 SEVERE DISCONTINUITIES OCCURRED DURING THIS ITERATION.
                    1 POINTS CHANGED FROM OPEN TO CLOSED
                    1 POINTS CHANGED FROM CLOSED TO OPEN
                    1 POINTS CHANGED FROM STICKING TO SLIPPING

               CONVERGENCE CHECKS FOR SEVERE DISCONTINUITY ITERATION     4

   MAX. PENETRATION ERROR 18.1415E-06  AT NODE BASE-C.39 OF CONTACT PAIR 
   (ASSEMBLY_BASE-C_TOP-SUF-BASEC,ASSEMBLY_MERGED-BODY-1_SURF-BOT-MER)
   MAX. CONTACT FORCE ERROR -2.80613E-03 AT NODE BASE-C.14 OF CONTACT PAIR 
   (ASSEMBLY_BASE-C_TOP-SUF-BASEC,ASSEMBLY_MERGED-BODY-1_SURF-BOT-MER)
          THE ESTIMATED CONTACT FORCE ERROR IS OUTSIDE OF CONVERGENCE TOLERANCES.

 AVERAGE FORCE                      3.999E-04   TIME AVG. FORCE       3.999E-04
 LARGEST RESIDUAL FORCE            -8.894E-03   AT NODE         57   DOF  2
   INSTANCE: MERGED-BODY-1                                                                   
 LARGEST INCREMENT OF DISP.         0.258       AT NODE        376   DOF  1
   INSTANCE: MERGED-BODY-1                                                                   
 LARGEST CORRECTION TO DISP.        1.409E-02   AT NODE        369   DOF  1
   INSTANCE: MERGED-BODY-1                                                                   
          FORCE     EQUILIBRIUM NOT ACHIEVED WITHIN TOLERANCE.

  NUMBER OF EQUATIONS =     1034     NUMBER OF FLOATING PT. OPERATIONS =  1.41E+06

  USING THE DIRECT SOLVER WITH   4 PROCESSORS

     CHECK POINT   START OF SOLVER    

     CHECK POINT  END OF SOLVER       

       ELAPSED USER TIME (SEC)      =  0.10000    
       ELAPSED SYSTEM TIME (SEC)    =  0.10000    
       ELAPSED TOTAL CPU TIME (SEC) =  0.20000    
       ELAPSED WALLCLOCK TIME (SEC) =          0
  
     ASYNCHRONOUS TRACKING ELEMENT LOOP STARTED
  

                    2 SEVERE DISCONTINUITIES OCCURRED DURING THIS ITERATION.
                    2 POINTS CHANGED FROM CLOSED TO OPEN

               CONVERGENCE CHECKS FOR SEVERE DISCONTINUITY ITERATION     5

   MAX. PENETRATION ERROR 62.9384E-09  AT NODE BASE-C.39 OF CONTACT PAIR 
   (ASSEMBLY_BASE-C_TOP-SUF-BASEC,ASSEMBLY_MERGED-BODY-1_SURF-BOT-MER)
   MAX. CONTACT FORCE ERROR -2.97317E-03 AT NODE BASE-C.35 OF CONTACT PAIR 
   (ASSEMBLY_BASE-C_TOP-SUF-BASEC,ASSEMBLY_MERGED-BODY-1_SURF-BOT-MER)
          THE ESTIMATED CONTACT FORCE ERROR IS OUTSIDE OF CONVERGENCE TOLERANCES.

 AVERAGE FORCE                      3.810E-04   TIME AVG. FORCE       3.810E-04
 LARGEST RESIDUAL FORCE             2.148E-03   AT NODE         76   DOF  2
   INSTANCE: MERGED-BODY-1                                                                   
 LARGEST INCREMENT OF DISP.         0.261       AT NODE        376   DOF  1
   INSTANCE: MERGED-BODY-1                                                                   
 LARGEST CORRECTION TO DISP.        2.564E-03   AT NODE        369   DOF  1
   INSTANCE: MERGED-BODY-1                                                                   
          FORCE     EQUILIBRIUM NOT ACHIEVED WITHIN TOLERANCE.

  NUMBER OF EQUATIONS =     1034     NUMBER OF FLOATING PT. OPERATIONS =  1.41E+06

  USING THE DIRECT SOLVER WITH   4 PROCESSORS

     CHECK POINT   START OF SOLVER    

     CHECK POINT  END OF SOLVER       

       ELAPSED USER TIME (SEC)      =  0.20000    
       ELAPSED SYSTEM TIME (SEC)    =   0.0000    
       ELAPSED TOTAL CPU TIME (SEC) =  0.20000    
       ELAPSED WALLCLOCK TIME (SEC) =          0
  
     ASYNCHRONOUS TRACKING ELEMENT LOOP STARTED
  

                    5 SEVERE DISCONTINUITIES OCCURRED DURING THIS ITERATION.
                    1 POINTS CHANGED FROM CLOSED TO OPEN
                    4 POINTS CHANGED FROM SLIPPING TO STICKING

               CONVERGENCE CHECKS FOR SEVERE DISCONTINUITY ITERATION     6

   MAX. PENETRATION ERROR -40.4068E-09  AT NODE BASE-C.16 OF CONTACT PAIR 
   (ASSEMBLY_BASE-C_TOP-SUF-BASEC,ASSEMBLY_MERGED-BODY-1_SURF-BOT-MER)
   MAX. CONTACT FORCE ERROR -2.85669E-03 AT NODE BASE-C.39 OF CONTACT PAIR 
   (ASSEMBLY_BASE-C_TOP-SUF-BASEC,ASSEMBLY_MERGED-BODY-1_SURF-BOT-MER)
          THE ESTIMATED CONTACT FORCE ERROR IS OUTSIDE OF CONVERGENCE TOLERANCES.

 AVERAGE FORCE                      4.323E-04   TIME AVG. FORCE       4.323E-04
 LARGEST RESIDUAL FORCE            -2.753E-02   AT NODE        183   DOF  2
   INSTANCE: MERGED-BODY-1                                                                   
 LARGEST INCREMENT OF DISP.         0.281       AT NODE        376   DOF  1
   INSTANCE: MERGED-BODY-1                                                                   
 LARGEST CORRECTION TO DISP.        2.060E-02   AT NODE        369   DOF  1
   INSTANCE: MERGED-BODY-1                                                                   
          FORCE     EQUILIBRIUM NOT ACHIEVED WITHIN TOLERANCE.
 

 ***NOTE: THE SOLUTION APPEARS TO BE DIVERGING. CONVERGENCE IS JUDGED UNLIKELY.


  INCREMENT     1 STARTS. ATTEMPT NUMBER  4, TIME INCREMENT  1.562E-02
  
     ASYNCHRONOUS TRACKING ELEMENT LOOP STARTED
  
 
     INITIAL ELEMENT LOAD BALANCE
        COMPUTE NODE   1   PROCESS    NUMBER OF ELEMENTS
                              1            74
                              2            74
                              3            74
                              4            74

  NUMBER OF EQUATIONS =     1034     NUMBER OF FLOATING PT. OPERATIONS =  1.45E+06

  USING THE DIRECT SOLVER WITH   4 PROCESSORS

     CHECK POINT   START OF SOLVER    

     CHECK POINT  END OF SOLVER       

       ELAPSED USER TIME (SEC)      =  0.20000    
       ELAPSED SYSTEM TIME (SEC)    =   0.0000    
       ELAPSED TOTAL CPU TIME (SEC) =  0.20000    
       ELAPSED WALLCLOCK TIME (SEC) =          0
  
     ASYNCHRONOUS TRACKING ELEMENT LOOP STARTED
  

                    6 SEVERE DISCONTINUITIES OCCURRED DURING THIS ITERATION.
                    1 POINTS CHANGED FROM OPEN TO CLOSED
                    5 POINTS CHANGED FROM CLOSED TO OPEN

               CONVERGENCE CHECKS FOR SEVERE DISCONTINUITY ITERATION     1

   MAX. PENETRATION ERROR 7.96663E-09 AT NODE BASE-C.47 OF CONTACT PAIR 
   (ASSEMBLY_BASE-C_TOP-SUF-BASEC,ASSEMBLY_MERGED-BODY-1_SURF-BOT-MER)
   MAX. CONTACT FORCE ERROR -740.513E-06   AT NODE BASE-C.12 OF CONTACT PAIR 
   (ASSEMBLY_BASE-C_TOP-SUF-BASEC,ASSEMBLY_MERGED-BODY-1_SURF-BOT-MER)
          THE ESTIMATED CONTACT FORCE ERROR IS OUTSIDE OF CONVERGENCE TOLERANCES.

 AVERAGE FORCE                      1.293E-04   TIME AVG. FORCE       1.293E-04
 LARGEST RESIDUAL FORCE            -5.601E-03   AT NODE        183   DOF  2
   INSTANCE: MERGED-BODY-1                                                                   
 LARGEST INCREMENT OF DISP.         6.430E-02   AT NODE        376   DOF  1
   INSTANCE: MERGED-BODY-1                                                                   
 LARGEST CORRECTION TO DISP.        6.430E-02   AT NODE        376   DOF  1
   INSTANCE: MERGED-BODY-1                                                                   
          FORCE     EQUILIBRIUM NOT ACHIEVED WITHIN TOLERANCE.

  NUMBER OF EQUATIONS =     1034     NUMBER OF FLOATING PT. OPERATIONS =  1.42E+06

  USING THE DIRECT SOLVER WITH   4 PROCESSORS

     CHECK POINT   START OF SOLVER    

     CHECK POINT  END OF SOLVER       

       ELAPSED USER TIME (SEC)      =  0.10000    
       ELAPSED SYSTEM TIME (SEC)    =   0.0000    
       ELAPSED TOTAL CPU TIME (SEC) =  0.10000    
       ELAPSED WALLCLOCK TIME (SEC) =          0
  
     ASYNCHRONOUS TRACKING ELEMENT LOOP STARTED
  

                    4 SEVERE DISCONTINUITIES OCCURRED DURING THIS ITERATION.
                    3 POINTS CHANGED FROM OPEN TO CLOSED
                    1 POINTS CHANGED FROM CLOSED TO OPEN

               CONVERGENCE CHECKS FOR SEVERE DISCONTINUITY ITERATION     2

   MAX. PENETRATION ERROR 77.3611E-06  AT NODE BASE-C.14 OF CONTACT PAIR 
   (ASSEMBLY_BASE-C_TOP-SUF-BASEC,ASSEMBLY_MERGED-BODY-1_SURF-BOT-MER)
   MAX. CONTACT FORCE ERROR -780.636E-06   AT NODE BASE-C.13 OF CONTACT PAIR 
   (ASSEMBLY_BASE-C_TOP-SUF-BASEC,ASSEMBLY_MERGED-BODY-1_SURF-BOT-MER)
          THE ESTIMATED CONTACT FORCE ERROR IS OUTSIDE OF CONVERGENCE TOLERANCES.

 AVERAGE FORCE                      1.038E-04   TIME AVG. FORCE       1.038E-04
 LARGEST RESIDUAL FORCE            -5.210E-04   AT NODE         13   DOF  2
   INSTANCE: BASE-C                                                                          
 LARGEST INCREMENT OF DISP.         6.464E-02   AT NODE        376   DOF  1
   INSTANCE: MERGED-BODY-1                                                                   
 LARGEST CORRECTION TO DISP.        3.483E-03   AT NODE        352   DOF  1
   INSTANCE: MERGED-BODY-1                                                                   
          FORCE     EQUILIBRIUM NOT ACHIEVED WITHIN TOLERANCE.

  NUMBER OF EQUATIONS =     1034     NUMBER OF FLOATING PT. OPERATIONS =  1.44E+06

  USING THE DIRECT SOLVER WITH   4 PROCESSORS

     CHECK POINT   START OF SOLVER    

     CHECK POINT  END OF SOLVER       

       ELAPSED USER TIME (SEC)      =  0.10000    
       ELAPSED SYSTEM TIME (SEC)    =   0.0000    
       ELAPSED TOTAL CPU TIME (SEC) =  0.10000    
       ELAPSED WALLCLOCK TIME (SEC) =          0
  
     ASYNCHRONOUS TRACKING ELEMENT LOOP STARTED
  

                    2 SEVERE DISCONTINUITIES OCCURRED DURING THIS ITERATION.
                    2 POINTS CHANGED FROM CLOSED TO OPEN

               CONVERGENCE CHECKS FOR SEVERE DISCONTINUITY ITERATION     3

   MAX. PENETRATION ERROR -49.8750E-09  AT NODE BASE-C.14 OF CONTACT PAIR 
   (ASSEMBLY_BASE-C_TOP-SUF-BASEC,ASSEMBLY_MERGED-BODY-1_SURF-BOT-MER)
   MAX. CONTACT FORCE ERROR -1.31566E-03 AT NODE BASE-C.31 OF CONTACT PAIR 
   (ASSEMBLY_BASE-C_TOP-SUF-BASEC,ASSEMBLY_MERGED-BODY-1_SURF-BOT-MER)
          THE ESTIMATED CONTACT FORCE ERROR IS OUTSIDE OF CONVERGENCE TOLERANCES.

 AVERAGE FORCE                      1.023E-04   TIME AVG. FORCE       1.023E-04
 LARGEST RESIDUAL FORCE             9.269E-04   AT NODE         76   DOF  2
   INSTANCE: MERGED-BODY-1                                                                   
 LARGEST INCREMENT OF DISP.         6.571E-02   AT NODE        376   DOF  1
   INSTANCE: MERGED-BODY-1                                                                   
 LARGEST CORRECTION TO DISP.        1.073E-03   AT NODE         29   DOF  1
   INSTANCE: MERGED-BODY-1                                                                   
          FORCE     EQUILIBRIUM NOT ACHIEVED WITHIN TOLERANCE.

  NUMBER OF EQUATIONS =     1034     NUMBER OF FLOATING PT. OPERATIONS =  1.44E+06

  USING THE DIRECT SOLVER WITH   4 PROCESSORS

     CHECK POINT   START OF SOLVER    

     CHECK POINT  END OF SOLVER       

       ELAPSED USER TIME (SEC)      =   0.0000    
       ELAPSED SYSTEM TIME (SEC)    =   0.0000    
       ELAPSED TOTAL CPU TIME (SEC) =   0.0000    
       ELAPSED WALLCLOCK TIME (SEC) =          0
  
     ASYNCHRONOUS TRACKING ELEMENT LOOP STARTED
  

                    2 SEVERE DISCONTINUITIES OCCURRED DURING THIS ITERATION.
                    1 POINTS CHANGED FROM OPEN TO CLOSED
                    1 POINTS CHANGED FROM CLOSED TO OPEN

               CONVERGENCE CHECKS FOR SEVERE DISCONTINUITY ITERATION     4

   MAX. PENETRATION ERROR 6.57305E-06 AT NODE BASE-C.39 OF CONTACT PAIR 
   (ASSEMBLY_BASE-C_TOP-SUF-BASEC,ASSEMBLY_MERGED-BODY-1_SURF-BOT-MER)
   MAX. CONTACT FORCE ERROR -731.771E-06   AT NODE BASE-C.14 OF CONTACT PAIR 
   (ASSEMBLY_BASE-C_TOP-SUF-BASEC,ASSEMBLY_MERGED-BODY-1_SURF-BOT-MER)
          THE ESTIMATED CONTACT FORCE ERROR IS OUTSIDE OF CONVERGENCE TOLERANCES.

 AVERAGE FORCE                      9.784E-05   TIME AVG. FORCE       9.784E-05
 LARGEST RESIDUAL FORCE            -6.938E-04   AT NODE         57   DOF  2
   INSTANCE: MERGED-BODY-1                                                                   
 LARGEST INCREMENT OF DISP.         6.952E-02   AT NODE        376   DOF  1
   INSTANCE: MERGED-BODY-1                                                                   
 LARGEST CORRECTION TO DISP.        3.853E-03   AT NODE         29   DOF  1
   INSTANCE: MERGED-BODY-1                                                                   
          FORCE     EQUILIBRIUM NOT ACHIEVED WITHIN TOLERANCE.

  NUMBER OF EQUATIONS =     1034     NUMBER OF FLOATING PT. OPERATIONS =  1.41E+06

  USING THE DIRECT SOLVER WITH   4 PROCESSORS

     CHECK POINT   START OF SOLVER    

     CHECK POINT  END OF SOLVER       

       ELAPSED USER TIME (SEC)      =  0.10000    
       ELAPSED SYSTEM TIME (SEC)    =   0.0000    
       ELAPSED TOTAL CPU TIME (SEC) =  0.10000    
       ELAPSED WALLCLOCK TIME (SEC) =          0
  
     ASYNCHRONOUS TRACKING ELEMENT LOOP STARTED
  

                    2 SEVERE DISCONTINUITIES OCCURRED DURING THIS ITERATION.
                    2 POINTS CHANGED FROM CLOSED TO OPEN

               CONVERGENCE CHECKS FOR SEVERE DISCONTINUITY ITERATION     5

   MAX. PENETRATION ERROR 7.58895E-09 AT NODE BASE-C.39 OF CONTACT PAIR 
   (ASSEMBLY_BASE-C_TOP-SUF-BASEC,ASSEMBLY_MERGED-BODY-1_SURF-BOT-MER)
   MAX. CONTACT FORCE ERROR -784.948E-06   AT NODE BASE-C.35 OF CONTACT PAIR 
   (ASSEMBLY_BASE-C_TOP-SUF-BASEC,ASSEMBLY_MERGED-BODY-1_SURF-BOT-MER)
          THE ESTIMATED CONTACT FORCE ERROR IS OUTSIDE OF CONVERGENCE TOLERANCES.

 AVERAGE FORCE                      9.676E-05   TIME AVG. FORCE       9.676E-05
 LARGEST RESIDUAL FORCE             5.597E-04   AT NODE         76   DOF  2
   INSTANCE: MERGED-BODY-1                                                                   
 LARGEST INCREMENT OF DISP.         7.026E-02   AT NODE        376   DOF  1
   INSTANCE: MERGED-BODY-1                                                                   
 LARGEST CORRECTION TO DISP.        7.543E-04   AT NODE         29   DOF  1
   INSTANCE: MERGED-BODY-1                                                                   
          FORCE     EQUILIBRIUM NOT ACHIEVED WITHIN TOLERANCE.

  NUMBER OF EQUATIONS =     1034     NUMBER OF FLOATING PT. OPERATIONS =  1.41E+06

  USING THE DIRECT SOLVER WITH   4 PROCESSORS

     CHECK POINT   START OF SOLVER    

     CHECK POINT  END OF SOLVER       

       ELAPSED USER TIME (SEC)      =   0.0000    
       ELAPSED SYSTEM TIME (SEC)    =   0.0000    
       ELAPSED TOTAL CPU TIME (SEC) =   0.0000    
       ELAPSED WALLCLOCK TIME (SEC) =          0
  
     ASYNCHRONOUS TRACKING ELEMENT LOOP STARTED
  

                    1 SEVERE DISCONTINUITIES OCCURRED DURING THIS ITERATION.
                    1 POINTS CHANGED FROM CLOSED TO OPEN

               CONVERGENCE CHECKS FOR SEVERE DISCONTINUITY ITERATION     6

   MAX. PENETRATION ERROR -1.46067E-09 AT NODE BASE-C.16 OF CONTACT PAIR 
   (ASSEMBLY_BASE-C_TOP-SUF-BASEC,ASSEMBLY_MERGED-BODY-1_SURF-BOT-MER)
   MAX. CONTACT FORCE ERROR -709.836E-06   AT NODE BASE-C.39 OF CONTACT PAIR 
   (ASSEMBLY_BASE-C_TOP-SUF-BASEC,ASSEMBLY_MERGED-BODY-1_SURF-BOT-MER)
          THE ESTIMATED CONTACT FORCE ERROR IS OUTSIDE OF CONVERGENCE TOLERANCES.

 AVERAGE FORCE                      9.724E-05   TIME AVG. FORCE       9.724E-05
 LARGEST RESIDUAL FORCE            -1.800E-03   AT NODE        183   DOF  2
   INSTANCE: MERGED-BODY-1                                                                   
 LARGEST INCREMENT OF DISP.         7.595E-02   AT NODE        376   DOF  1
   INSTANCE: MERGED-BODY-1                                                                   
 LARGEST CORRECTION TO DISP.        5.776E-03   AT NODE         29   DOF  1
   INSTANCE: MERGED-BODY-1                                                                   
          FORCE     EQUILIBRIUM NOT ACHIEVED WITHIN TOLERANCE.

  NUMBER OF EQUATIONS =     1034     NUMBER OF FLOATING PT. OPERATIONS =  1.41E+06

  USING THE DIRECT SOLVER WITH   4 PROCESSORS

     CHECK POINT   START OF SOLVER    

     CHECK POINT  END OF SOLVER       

       ELAPSED USER TIME (SEC)      =  0.10000    
       ELAPSED SYSTEM TIME (SEC)    =   0.0000    
       ELAPSED TOTAL CPU TIME (SEC) =  0.10000    
       ELAPSED WALLCLOCK TIME (SEC) =          0
  
     ASYNCHRONOUS TRACKING ELEMENT LOOP STARTED
  

                    1 SEVERE DISCONTINUITIES OCCURRED DURING THIS ITERATION.
                    1 POINTS CHANGED FROM CLOSED TO OPEN

               CONVERGENCE CHECKS FOR SEVERE DISCONTINUITY ITERATION     7

   MAX. PENETRATION ERROR 78.1753E-09  AT NODE BASE-C.43 OF CONTACT PAIR 
   (ASSEMBLY_BASE-C_TOP-SUF-BASEC,ASSEMBLY_MERGED-BODY-1_SURF-BOT-MER)
   MAX. CONTACT FORCE ERROR -592.309E-06   AT NODE BASE-C.16 OF CONTACT PAIR 
   (ASSEMBLY_BASE-C_TOP-SUF-BASEC,ASSEMBLY_MERGED-BODY-1_SURF-BOT-MER)
          THE ESTIMATED CONTACT FORCE ERROR IS OUTSIDE OF CONVERGENCE TOLERANCES.

 AVERAGE FORCE                      9.448E-05   TIME AVG. FORCE       9.448E-05
 LARGEST RESIDUAL FORCE            -3.953E-04   AT NODE         16   DOF  2
   INSTANCE: BASE-C                                                                          
 LARGEST INCREMENT OF DISP.         7.688E-02   AT NODE        376   DOF  1
   INSTANCE: MERGED-BODY-1                                                                   
 LARGEST CORRECTION TO DISP.        9.456E-04   AT NODE         29   DOF  1
   INSTANCE: MERGED-BODY-1                                                                   
          FORCE     EQUILIBRIUM NOT ACHIEVED WITHIN TOLERANCE.

  NUMBER OF EQUATIONS =     1034     NUMBER OF FLOATING PT. OPERATIONS =  1.41E+06

  USING THE DIRECT SOLVER WITH   4 PROCESSORS

     CHECK POINT   START OF SOLVER    

     CHECK POINT  END OF SOLVER       

       ELAPSED USER TIME (SEC)      =   0.0000    
       ELAPSED SYSTEM TIME (SEC)    =   0.0000    
       ELAPSED TOTAL CPU TIME (SEC) =   0.0000    
       ELAPSED WALLCLOCK TIME (SEC) =          0
  
     ASYNCHRONOUS TRACKING ELEMENT LOOP STARTED
  

                    1 SEVERE DISCONTINUITIES OCCURRED DURING THIS ITERATION.
                    1 POINTS CHANGED FROM CLOSED TO OPEN

               CONVERGENCE CHECKS FOR SEVERE DISCONTINUITY ITERATION     8

   MAX. PENETRATION ERROR 6.23701E-09 AT NODE BASE-C.17 OF CONTACT PAIR 
   (ASSEMBLY_BASE-C_TOP-SUF-BASEC,ASSEMBLY_MERGED-BODY-1_SURF-BOT-MER)
   MAX. CONTACT FORCE ERROR -650.936E-06   AT NODE BASE-C.43 OF CONTACT PAIR 
   (ASSEMBLY_BASE-C_TOP-SUF-BASEC,ASSEMBLY_MERGED-BODY-1_SURF-BOT-MER)
          THE ESTIMATED CONTACT FORCE ERROR IS OUTSIDE OF CONVERGENCE TOLERANCES.

 AVERAGE FORCE                      9.504E-05   TIME AVG. FORCE       9.504E-05
 LARGEST RESIDUAL FORCE             4.365E-04   AT NODE          6   DOF  2
   INSTANCE: MERGED-BODY-1                                                                   
 LARGEST INCREMENT OF DISP.         7.791E-02   AT NODE        376   DOF  1
   INSTANCE: MERGED-BODY-1                                                                   
 LARGEST CORRECTION TO DISP.        1.055E-03   AT NODE         29   DOF  1
   INSTANCE: MERGED-BODY-1                                                                   
          FORCE     EQUILIBRIUM NOT ACHIEVED WITHIN TOLERANCE.

  NUMBER OF EQUATIONS =     1034     NUMBER OF FLOATING PT. OPERATIONS =  1.41E+06

  USING THE DIRECT SOLVER WITH   4 PROCESSORS

     CHECK POINT   START OF SOLVER    

     CHECK POINT  END OF SOLVER       

       ELAPSED USER TIME (SEC)      =  0.10000    
       ELAPSED SYSTEM TIME (SEC)    =   0.0000    
       ELAPSED TOTAL CPU TIME (SEC) =  0.10000    
       ELAPSED WALLCLOCK TIME (SEC) =          0
  
     ASYNCHRONOUS TRACKING ELEMENT LOOP STARTED
  

               CONVERGENCE CHECKS FOR EQUILIBRIUM ITERATION     1

   MAX. PENETRATION ERROR 4.69787E-09 AT NODE BASE-C.17 OF CONTACT PAIR 
   (ASSEMBLY_BASE-C_TOP-SUF-BASEC,ASSEMBLY_MERGED-BODY-1_SURF-BOT-MER)
   MAX. CONTACT FORCE ERROR 2.78125E-09 AT NODE BASE-C.17 OF CONTACT PAIR 
   (ASSEMBLY_BASE-C_TOP-SUF-BASEC,ASSEMBLY_MERGED-BODY-1_SURF-BOT-MER)
          THE CONTACT CONSTRAINTS HAVE CONVERGED.

 AVERAGE FORCE                      9.606E-05   TIME AVG. FORCE       9.606E-05
 LARGEST RESIDUAL FORCE             1.070E-04   AT NODE        180   DOF  2
   INSTANCE: MERGED-BODY-1                                                                   
 LARGEST INCREMENT OF DISP.         7.900E-02   AT NODE        376   DOF  1
   INSTANCE: MERGED-BODY-1                                                                   
 LARGEST CORRECTION TO DISP.        1.224E-03   AT NODE        174   DOF  2
   INSTANCE: MERGED-BODY-1                                                                   
          FORCE     EQUILIBRIUM NOT ACHIEVED WITHIN TOLERANCE.

  NUMBER OF EQUATIONS =     1034     NUMBER OF FLOATING PT. OPERATIONS =  1.41E+06

  USING THE DIRECT SOLVER WITH   4 PROCESSORS

     CHECK POINT   START OF SOLVER    

     CHECK POINT  END OF SOLVER       

       ELAPSED USER TIME (SEC)      =   0.0000    
       ELAPSED SYSTEM TIME (SEC)    =   0.0000    
       ELAPSED TOTAL CPU TIME (SEC) =   0.0000    
       ELAPSED WALLCLOCK TIME (SEC) =          0
  
     ASYNCHRONOUS TRACKING ELEMENT LOOP STARTED
  

               CONVERGENCE CHECKS FOR EQUILIBRIUM ITERATION     2

   MAX. PENETRATION ERROR 21.1181E-12  AT NODE BASE-C.17 OF CONTACT PAIR 
   (ASSEMBLY_BASE-C_TOP-SUF-BASEC,ASSEMBLY_MERGED-BODY-1_SURF-BOT-MER)
   MAX. CONTACT FORCE ERROR 12.5024E-12  AT NODE BASE-C.17 OF CONTACT PAIR 
   (ASSEMBLY_BASE-C_TOP-SUF-BASEC,ASSEMBLY_MERGED-BODY-1_SURF-BOT-MER)
          THE CONTACT CONSTRAINTS HAVE CONVERGED.

 AVERAGE FORCE                      9.606E-05   TIME AVG. FORCE       9.606E-05
 LARGEST RESIDUAL FORCE             2.027E-06   AT NODE        182   DOF  1
   INSTANCE: MERGED-BODY-1                                                                   
 LARGEST INCREMENT OF DISP.         7.908E-02   AT NODE        376   DOF  1
   INSTANCE: MERGED-BODY-1                                                                   
 LARGEST CORRECTION TO DISP.       -1.421E-04   AT NODE         34   DOF  1
   INSTANCE: MERGED-BODY-1                                                                   
          FORCE     EQUILIBRIUM NOT ACHIEVED WITHIN TOLERANCE.

  NUMBER OF EQUATIONS =     1034     NUMBER OF FLOATING PT. OPERATIONS =  1.41E+06

  USING THE DIRECT SOLVER WITH   4 PROCESSORS

     CHECK POINT   START OF SOLVER    

     CHECK POINT  END OF SOLVER       

       ELAPSED USER TIME (SEC)      =  0.10000    
       ELAPSED SYSTEM TIME (SEC)    =   0.0000    
       ELAPSED TOTAL CPU TIME (SEC) =  0.10000    
       ELAPSED WALLCLOCK TIME (SEC) =          0
  
     ASYNCHRONOUS TRACKING ELEMENT LOOP STARTED
  

               CONVERGENCE CHECKS FOR EQUILIBRIUM ITERATION     3

   MAX. PENETRATION ERROR 332.145E-18   AT NODE BASE-C.17 OF CONTACT PAIR 
   (ASSEMBLY_BASE-C_TOP-SUF-BASEC,ASSEMBLY_MERGED-BODY-1_SURF-BOT-MER)
   MAX. CONTACT FORCE ERROR 196.638E-18   AT NODE BASE-C.17 OF CONTACT PAIR 
   (ASSEMBLY_BASE-C_TOP-SUF-BASEC,ASSEMBLY_MERGED-BODY-1_SURF-BOT-MER)
          THE CONTACT CONSTRAINTS HAVE CONVERGED.

 AVERAGE FORCE                      9.606E-05   TIME AVG. FORCE       9.606E-05
 LARGEST RESIDUAL FORCE            -4.565E-09   AT NODE        182   DOF  2
   INSTANCE: MERGED-BODY-1                                                                   
 LARGEST INCREMENT OF DISP.         7.908E-02   AT NODE        376   DOF  1
   INSTANCE: MERGED-BODY-1                                                                   
 LARGEST CORRECTION TO DISP.        4.779E-08   AT NODE         34   DOF  1
   INSTANCE: MERGED-BODY-1                                                                   
          THE FORCE     EQUILIBRIUM EQUATIONS HAVE CONVERGED

          BECAUSE OF INCONSISTENT CONVERGENCE
          THE NEXT TIME INCREMENT WILL BE REDUCED TO    1.172E-02

 ITERATION SUMMARY FOR THE INCREMENT:  11 TOTAL ITERATIONS, OF WHICH
   8 ARE SEVERE DISCONTINUITY ITERATIONS AND  3 ARE EQUILIBRIUM ITERATIONS.

 TIME INCREMENT COMPLETED  1.562E-02,  FRACTION OF STEP COMPLETED  1.562E-02
 STEP TIME COMPLETED       1.562E-02,  TOTAL TIME COMPLETED        1.562E-02
  
     ASYNCHRONOUS OUTPUT DATABASE FRAME FLUSH STARTED
  


  INCREMENT     2 STARTS. ATTEMPT NUMBER  1, TIME INCREMENT  1.172E-02
  
     ASYNCHRONOUS TRACKING ELEMENT LOOP STARTED
  

  NUMBER OF EQUATIONS =     1034     NUMBER OF FLOATING PT. OPERATIONS =  1.41E+06

  USING THE DIRECT SOLVER WITH   4 PROCESSORS

     CHECK POINT   START OF SOLVER    

     CHECK POINT  END OF SOLVER       

       ELAPSED USER TIME (SEC)      =  0.10000    
       ELAPSED SYSTEM TIME (SEC)    =   0.0000    
       ELAPSED TOTAL CPU TIME (SEC) =  0.10000    
       ELAPSED WALLCLOCK TIME (SEC) =          0
  
     ASYNCHRONOUS TRACKING ELEMENT LOOP STARTED
  

               CONVERGENCE CHECKS FOR EQUILIBRIUM ITERATION     1

   MAX. PENETRATION ERROR 412.712E-12   AT NODE BASE-C.17 OF CONTACT PAIR 
   (ASSEMBLY_BASE-C_TOP-SUF-BASEC,ASSEMBLY_MERGED-BODY-1_SURF-BOT-MER)
   MAX. CONTACT FORCE ERROR 244.335E-12   AT NODE BASE-C.17 OF CONTACT PAIR 
   (ASSEMBLY_BASE-C_TOP-SUF-BASEC,ASSEMBLY_MERGED-BODY-1_SURF-BOT-MER)
          THE CONTACT CONSTRAINTS HAVE CONVERGED.

 AVERAGE FORCE                      3.424E-04   TIME AVG. FORCE       2.192E-04
 LARGEST RESIDUAL FORCE             5.172E-05   AT NODE        180   DOF  2
   INSTANCE: MERGED-BODY-1                                                                   
 LARGEST INCREMENT OF DISP.         5.629E-02   AT NODE        376   DOF  1
   INSTANCE: MERGED-BODY-1                                                                   
 LARGEST CORRECTION TO DISP.       -3.169E-03   AT NODE         29   DOF  1
   INSTANCE: MERGED-BODY-1                                                                   
          FORCE     EQUILIBRIUM NOT ACHIEVED WITHIN TOLERANCE.

  NUMBER OF EQUATIONS =     1034     NUMBER OF FLOATING PT. OPERATIONS =  1.41E+06

  USING THE DIRECT SOLVER WITH   4 PROCESSORS

     CHECK POINT   START OF SOLVER    

     CHECK POINT  END OF SOLVER       

       ELAPSED USER TIME (SEC)      =  0.30000    
       ELAPSED SYSTEM TIME (SEC)    =   0.0000    
       ELAPSED TOTAL CPU TIME (SEC) =  0.30000    
       ELAPSED WALLCLOCK TIME (SEC) =          0
  
     ASYNCHRONOUS TRACKING ELEMENT LOOP STARTED
  

               CONVERGENCE CHECKS FOR EQUILIBRIUM ITERATION     2

   MAX. PENETRATION ERROR 194.597E-15   AT NODE BASE-C.17 OF CONTACT PAIR 
   (ASSEMBLY_BASE-C_TOP-SUF-BASEC,ASSEMBLY_MERGED-BODY-1_SURF-BOT-MER)
   MAX. CONTACT FORCE ERROR 115.206E-15   AT NODE BASE-C.17 OF CONTACT PAIR 
   (ASSEMBLY_BASE-C_TOP-SUF-BASEC,ASSEMBLY_MERGED-BODY-1_SURF-BOT-MER)
          THE CONTACT CONSTRAINTS HAVE CONVERGED.

 AVERAGE FORCE                      3.496E-04   TIME AVG. FORCE       2.228E-04
 LARGEST RESIDUAL FORCE            -1.586E-07   AT NODE        178   DOF  1
   INSTANCE: MERGED-BODY-1                                                                   
 LARGEST INCREMENT OF DISP.         5.624E-02   AT NODE        376   DOF  1
   INSTANCE: MERGED-BODY-1                                                                   
 LARGEST CORRECTION TO DISP.        5.995E-05   AT NODE         42   DOF  1
   INSTANCE: MERGED-BODY-1                                                                   
          THE FORCE     EQUILIBRIUM EQUATIONS HAVE CONVERGED
 NO INCREASE IN INCREMENT SIZE DUE TO NON-MONOTONIC CONVERGENCE  IN LAST TWO INCREMENTS.

 ITERATION SUMMARY FOR THE INCREMENT:   2 TOTAL ITERATIONS, OF WHICH
   0 ARE SEVERE DISCONTINUITY ITERATIONS AND  2 ARE EQUILIBRIUM ITERATIONS.

 TIME INCREMENT COMPLETED  1.172E-02,  FRACTION OF STEP COMPLETED  2.734E-02
 STEP TIME COMPLETED       2.734E-02,  TOTAL TIME COMPLETED        2.734E-02
  
     ASYNCHRONOUS OUTPUT DATABASE FRAME FLUSH STARTED
  


  INCREMENT     3 STARTS. ATTEMPT NUMBER  1, TIME INCREMENT  1.172E-02
  
     ASYNCHRONOUS TRACKING ELEMENT LOOP STARTED
  

  NUMBER OF EQUATIONS =     1034     NUMBER OF FLOATING PT. OPERATIONS =  1.41E+06

  USING THE DIRECT SOLVER WITH   4 PROCESSORS

     CHECK POINT   START OF SOLVER    

     CHECK POINT  END OF SOLVER       

       ELAPSED USER TIME (SEC)      =   0.0000    
       ELAPSED SYSTEM TIME (SEC)    =   0.0000    
       ELAPSED TOTAL CPU TIME (SEC) =   0.0000    
       ELAPSED WALLCLOCK TIME (SEC) =          1
  
     ASYNCHRONOUS TRACKING ELEMENT LOOP STARTED
  

               CONVERGENCE CHECKS FOR EQUILIBRIUM ITERATION     1

   MAX. PENETRATION ERROR 197.249E-12   AT NODE BASE-C.17 OF CONTACT PAIR 
   (ASSEMBLY_BASE-C_TOP-SUF-BASEC,ASSEMBLY_MERGED-BODY-1_SURF-BOT-MER)
   MAX. CONTACT FORCE ERROR 116.776E-12   AT NODE BASE-C.17 OF CONTACT PAIR 
   (ASSEMBLY_BASE-C_TOP-SUF-BASEC,ASSEMBLY_MERGED-BODY-1_SURF-BOT-MER)
          THE CONTACT CONSTRAINTS HAVE CONVERGED.

 AVERAGE FORCE                      4.912E-04   TIME AVG. FORCE       3.123E-04
 LARGEST RESIDUAL FORCE             2.774E-05   AT NODE        180   DOF  2
   INSTANCE: MERGED-BODY-1                                                                   
 LARGEST INCREMENT OF DISP.         5.395E-02   AT NODE        376   DOF  1
   INSTANCE: MERGED-BODY-1                                                                   
 LARGEST CORRECTION TO DISP.       -2.398E-03   AT NODE         29   DOF  1
   INSTANCE: MERGED-BODY-1                                                                   
          FORCE     EQUILIBRIUM NOT ACHIEVED WITHIN TOLERANCE.

  NUMBER OF EQUATIONS =     1034     NUMBER OF FLOATING PT. OPERATIONS =  1.41E+06

  USING THE DIRECT SOLVER WITH   4 PROCESSORS

     CHECK POINT   START OF SOLVER    

     CHECK POINT  END OF SOLVER       

       ELAPSED USER TIME (SEC)      =   0.0000    
       ELAPSED SYSTEM TIME (SEC)    =   0.0000    
       ELAPSED TOTAL CPU TIME (SEC) =   0.0000    
       ELAPSED WALLCLOCK TIME (SEC) =          0
  
     ASYNCHRONOUS TRACKING ELEMENT LOOP STARTED
  

               CONVERGENCE CHECKS FOR EQUILIBRIUM ITERATION     2

   MAX. PENETRATION ERROR 52.2069E-15  AT NODE BASE-C.17 OF CONTACT PAIR 
   (ASSEMBLY_BASE-C_TOP-SUF-BASEC,ASSEMBLY_MERGED-BODY-1_SURF-BOT-MER)
   MAX. CONTACT FORCE ERROR 30.9077E-15  AT NODE BASE-C.17 OF CONTACT PAIR 
   (ASSEMBLY_BASE-C_TOP-SUF-BASEC,ASSEMBLY_MERGED-BODY-1_SURF-BOT-MER)
          THE CONTACT CONSTRAINTS HAVE CONVERGED.

 AVERAGE FORCE                      4.967E-04   TIME AVG. FORCE       3.141E-04
 LARGEST RESIDUAL FORCE            -8.116E-08   AT NODE        178   DOF  1
   INSTANCE: MERGED-BODY-1                                                                   
 LARGEST INCREMENT OF DISP.         5.392E-02   AT NODE        376   DOF  1
   INSTANCE: MERGED-BODY-1                                                                   
 LARGEST CORRECTION TO DISP.        3.556E-05   AT NODE         42   DOF  1
   INSTANCE: MERGED-BODY-1                                                                   
          THE FORCE     EQUILIBRIUM EQUATIONS HAVE CONVERGED
          TIME INCREMENT MAY NOW INCREASE TO    1.758E-02

 ITERATION SUMMARY FOR THE INCREMENT:   2 TOTAL ITERATIONS, OF WHICH
   0 ARE SEVERE DISCONTINUITY ITERATIONS AND  2 ARE EQUILIBRIUM ITERATIONS.

 TIME INCREMENT COMPLETED  1.172E-02,  FRACTION OF STEP COMPLETED  3.906E-02
 STEP TIME COMPLETED       3.906E-02,  TOTAL TIME COMPLETED        3.906E-02
  
     ASYNCHRONOUS OUTPUT DATABASE FRAME FLUSH STARTED
  


  INCREMENT     4 STARTS. ATTEMPT NUMBER  1, TIME INCREMENT  1.758E-02
  
     ASYNCHRONOUS TRACKING ELEMENT LOOP STARTED
  

  NUMBER OF EQUATIONS =     1034     NUMBER OF FLOATING PT. OPERATIONS =  1.41E+06

  USING THE DIRECT SOLVER WITH   4 PROCESSORS

     CHECK POINT   START OF SOLVER    

     CHECK POINT  END OF SOLVER       

       ELAPSED USER TIME (SEC)      =  0.10000    
       ELAPSED SYSTEM TIME (SEC)    =   0.0000    
       ELAPSED TOTAL CPU TIME (SEC) =  0.10000    
       ELAPSED WALLCLOCK TIME (SEC) =          0
  
     ASYNCHRONOUS TRACKING ELEMENT LOOP STARTED
  

               CONVERGENCE CHECKS FOR EQUILIBRIUM ITERATION     1

   MAX. PENETRATION ERROR 444.570E-12   AT NODE BASE-C.17 OF CONTACT PAIR 
   (ASSEMBLY_BASE-C_TOP-SUF-BASEC,ASSEMBLY_MERGED-BODY-1_SURF-BOT-MER)
   MAX. CONTACT FORCE ERROR 263.196E-12   AT NODE BASE-C.17 OF CONTACT PAIR 
   (ASSEMBLY_BASE-C_TOP-SUF-BASEC,ASSEMBLY_MERGED-BODY-1_SURF-BOT-MER)
          THE CONTACT CONSTRAINTS HAVE CONVERGED.

 AVERAGE FORCE                      6.977E-04   TIME AVG. FORCE       4.100E-04
 LARGEST RESIDUAL FORCE             7.044E-05   AT NODE        180   DOF  2
   INSTANCE: MERGED-BODY-1                                                                   
 LARGEST INCREMENT OF DISP.         7.711E-02   AT NODE        376   DOF  1
   INSTANCE: MERGED-BODY-1                                                                   
 LARGEST CORRECTION TO DISP.       -3.938E-03   AT NODE         29   DOF  1
   INSTANCE: MERGED-BODY-1                                                                   
          FORCE     EQUILIBRIUM NOT ACHIEVED WITHIN TOLERANCE.

  NUMBER OF EQUATIONS =     1034     NUMBER OF FLOATING PT. OPERATIONS =  1.41E+06

  USING THE DIRECT SOLVER WITH   4 PROCESSORS

     CHECK POINT   START OF SOLVER    

     CHECK POINT  END OF SOLVER       

       ELAPSED USER TIME (SEC)      =  0.10000    
       ELAPSED SYSTEM TIME (SEC)    =   0.0000    
       ELAPSED TOTAL CPU TIME (SEC) =  0.10000    
       ELAPSED WALLCLOCK TIME (SEC) =          0
  
     ASYNCHRONOUS TRACKING ELEMENT LOOP STARTED
  

               CONVERGENCE CHECKS FOR EQUILIBRIUM ITERATION     2

   MAX. PENETRATION ERROR 342.606E-15   AT NODE BASE-C.17 OF CONTACT PAIR 
   (ASSEMBLY_BASE-C_TOP-SUF-BASEC,ASSEMBLY_MERGED-BODY-1_SURF-BOT-MER)
   MAX. CONTACT FORCE ERROR 202.831E-15   AT NODE BASE-C.17 OF CONTACT PAIR 
   (ASSEMBLY_BASE-C_TOP-SUF-BASEC,ASSEMBLY_MERGED-BODY-1_SURF-BOT-MER)
          THE CONTACT CONSTRAINTS HAVE CONVERGED.

 AVERAGE FORCE                      7.138E-04   TIME AVG. FORCE       4.140E-04
 LARGEST RESIDUAL FORCE            -3.010E-07   AT NODE        178   DOF  1
   INSTANCE: MERGED-BODY-1                                                                   
 LARGEST INCREMENT OF DISP.         7.704E-02   AT NODE        376   DOF  1
   INSTANCE: MERGED-BODY-1                                                                   
 LARGEST CORRECTION TO DISP.        9.696E-05   AT NODE         42   DOF  1
   INSTANCE: MERGED-BODY-1                                                                   
          THE FORCE     EQUILIBRIUM EQUATIONS HAVE CONVERGED
          TIME INCREMENT MAY NOW INCREASE TO    2.637E-02

 ITERATION SUMMARY FOR THE INCREMENT:   2 TOTAL ITERATIONS, OF WHICH
   0 ARE SEVERE DISCONTINUITY ITERATIONS AND  2 ARE EQUILIBRIUM ITERATIONS.

 TIME INCREMENT COMPLETED  1.758E-02,  FRACTION OF STEP COMPLETED  5.664E-02
 STEP TIME COMPLETED       5.664E-02,  TOTAL TIME COMPLETED        5.664E-02
  
     ASYNCHRONOUS OUTPUT DATABASE FRAME FLUSH STARTED
  


  INCREMENT     5 STARTS. ATTEMPT NUMBER  1, TIME INCREMENT  2.637E-02
  
     ASYNCHRONOUS TRACKING ELEMENT LOOP STARTED
  

  NUMBER OF EQUATIONS =     1034     NUMBER OF FLOATING PT. OPERATIONS =  1.41E+06

  USING THE DIRECT SOLVER WITH   4 PROCESSORS

     CHECK POINT   START OF SOLVER    

     CHECK POINT  END OF SOLVER       

       ELAPSED USER TIME (SEC)      =  0.10000    
       ELAPSED SYSTEM TIME (SEC)    =   0.0000    
       ELAPSED TOTAL CPU TIME (SEC) =  0.10000    
       ELAPSED WALLCLOCK TIME (SEC) =          0
  
     ASYNCHRONOUS TRACKING ELEMENT LOOP STARTED
  

               CONVERGENCE CHECKS FOR EQUILIBRIUM ITERATION     1

   MAX. PENETRATION ERROR 1.20779E-09 AT NODE BASE-C.17 OF CONTACT PAIR 
   (ASSEMBLY_BASE-C_TOP-SUF-BASEC,ASSEMBLY_MERGED-BODY-1_SURF-BOT-MER)
   MAX. CONTACT FORCE ERROR 715.038E-12   AT NODE BASE-C.17 OF CONTACT PAIR 
   (ASSEMBLY_BASE-C_TOP-SUF-BASEC,ASSEMBLY_MERGED-BODY-1_SURF-BOT-MER)
          THE CONTACT CONSTRAINTS HAVE CONVERGED.

 AVERAGE FORCE                      9.832E-04   TIME AVG. FORCE       5.279E-04
 LARGEST RESIDUAL FORCE             2.389E-04   AT NODE        180   DOF  2
   INSTANCE: MERGED-BODY-1                                                                   
 LARGEST INCREMENT OF DISP.         0.108       AT NODE        376   DOF  1
   INSTANCE: MERGED-BODY-1                                                                   
 LARGEST CORRECTION TO DISP.       -7.514E-03   AT NODE         29   DOF  1
   INSTANCE: MERGED-BODY-1                                                                   
          FORCE     EQUILIBRIUM NOT ACHIEVED WITHIN TOLERANCE.

  NUMBER OF EQUATIONS =     1034     NUMBER OF FLOATING PT. OPERATIONS =  1.41E+06

  USING THE DIRECT SOLVER WITH   4 PROCESSORS

     CHECK POINT   START OF SOLVER    

     CHECK POINT  END OF SOLVER       

       ELAPSED USER TIME (SEC)      =  0.30000    
       ELAPSED SYSTEM TIME (SEC)    =   0.0000    
       ELAPSED TOTAL CPU TIME (SEC) =  0.30000    
       ELAPSED WALLCLOCK TIME (SEC) =          0
  
     ASYNCHRONOUS TRACKING ELEMENT LOOP STARTED
  

               CONVERGENCE CHECKS FOR EQUILIBRIUM ITERATION     2

   MAX. PENETRATION ERROR 4.19444E-12 AT NODE BASE-C.17 OF CONTACT PAIR 
   (ASSEMBLY_BASE-C_TOP-SUF-BASEC,ASSEMBLY_MERGED-BODY-1_SURF-BOT-MER)
   MAX. CONTACT FORCE ERROR 2.48321E-12 AT NODE BASE-C.17 OF CONTACT PAIR 
   (ASSEMBLY_BASE-C_TOP-SUF-BASEC,ASSEMBLY_MERGED-BODY-1_SURF-BOT-MER)
          THE CONTACT CONSTRAINTS HAVE CONVERGED.

 AVERAGE FORCE                      1.027E-03   TIME AVG. FORCE       5.366E-04
 LARGEST RESIDUAL FORCE            -1.484E-06   AT NODE        178   DOF  1
[...]
  
     ASYNCHRONOUS OUTPUT DATABASE FRAME FLUSH STARTED
  


  INCREMENT    39 STARTS. ATTEMPT NUMBER  1, TIME INCREMENT  9.764E-02
  
     ASYNCHRONOUS TRACKING ELEMENT LOOP STARTED
  

  NUMBER OF EQUATIONS =     1034     NUMBER OF FLOATING PT. OPERATIONS =  1.19E+06

  USING THE DIRECT SOLVER WITH   4 PROCESSORS

     CHECK POINT   START OF SOLVER    

     CHECK POINT  END OF SOLVER       

       ELAPSED USER TIME (SEC)      =  0.10000    
       ELAPSED SYSTEM TIME (SEC)    =   0.0000    
       ELAPSED TOTAL CPU TIME (SEC) =  0.10000    
       ELAPSED WALLCLOCK TIME (SEC) =          0
  
     ASYNCHRONOUS TRACKING ELEMENT LOOP STARTED
  

                    2 SEVERE DISCONTINUITIES OCCURRED DURING THIS ITERATION.
                    2 POINTS CHANGED FROM OPEN TO CLOSED

               CONVERGENCE CHECKS FOR SEVERE DISCONTINUITY ITERATION     1

   MAX. PENETRATION ERROR 11.2040E-03  AT NODE MERGED-BODY-1.388 OF CONTACT 
   PAIR (ASSEMBLY_SURF-CONTACT,ASSEMBLY_SURF-CONTACT)
   MAX. CONTACT FORCE ERROR 67.7315E-03  AT NODE MERGED-BODY-1.388 OF CONTACT 
   PAIR (ASSEMBLY_SURF-CONTACT,ASSEMBLY_SURF-CONTACT)
          PENETRATION ERROR TOO LARGE COMPARED TO DISPLACEMENT INCREMENT.

 AVERAGE FORCE                      5.254E-03   TIME AVG. FORCE       2.479E-03
 LARGEST RESIDUAL FORCE             8.229E-04   AT NODE        180   DOF  2
   INSTANCE: MERGED-BODY-1                                                                   
 LARGEST INCREMENT OF DISP.         0.334       AT NODE        105   DOF  1
   INSTANCE: MERGED-BODY-1                                                                   
 LARGEST CORRECTION TO DISP.       -1.929E-02   AT NODE        306   DOF  1
   INSTANCE: MERGED-BODY-1                                                                   
          FORCE     EQUILIBRIUM NOT ACHIEVED WITHIN TOLERANCE.

  NUMBER OF EQUATIONS =     1034     NUMBER OF FLOATING PT. OPERATIONS =  1.23E+06

  USING THE DIRECT SOLVER WITH   4 PROCESSORS

     CHECK POINT   START OF SOLVER    

     CHECK POINT  END OF SOLVER       

       ELAPSED USER TIME (SEC)      =   0.0000    
       ELAPSED SYSTEM TIME (SEC)    =   0.0000    
       ELAPSED TOTAL CPU TIME (SEC) =   0.0000    
       ELAPSED WALLCLOCK TIME (SEC) =          0
  
     ASYNCHRONOUS TRACKING ELEMENT LOOP STARTED
  

               CONVERGENCE CHECKS FOR EQUILIBRIUM ITERATION     1

   MAX. PENETRATION ERROR 56.5497E-06  AT NODE MERGED-BODY-1.109 OF CONTACT 
   PAIR (ASSEMBLY_SURF-CONTACT,ASSEMBLY_SURF-CONTACT)
   MAX. CONTACT FORCE ERROR 365.619E-06   AT NODE MERGED-BODY-1.109 OF CONTACT 
   PAIR (ASSEMBLY_SURF-CONTACT,ASSEMBLY_SURF-CONTACT)
          THE CONTACT CONSTRAINTS HAVE CONVERGED.

 AVERAGE FORCE                      5.217E-03   TIME AVG. FORCE       2.478E-03
 LARGEST RESIDUAL FORCE            -1.349E-03   AT NODE        183   DOF  2
   INSTANCE: MERGED-BODY-1                                                                   
 LARGEST INCREMENT OF DISP.         0.325       AT NODE        105   DOF  1
   INSTANCE: MERGED-BODY-1                                                                   
 LARGEST CORRECTION TO DISP.        3.855E-02   AT NODE        282   DOF  1
   INSTANCE: MERGED-BODY-1                                                                   
          FORCE     EQUILIBRIUM NOT ACHIEVED WITHIN TOLERANCE.

  NUMBER OF EQUATIONS =     1034     NUMBER OF FLOATING PT. OPERATIONS =  1.23E+06

  USING THE DIRECT SOLVER WITH   4 PROCESSORS

     CHECK POINT   START OF SOLVER    

     CHECK POINT  END OF SOLVER       

       ELAPSED USER TIME (SEC)      =   0.0000    
       ELAPSED SYSTEM TIME (SEC)    =   0.0000    
       ELAPSED TOTAL CPU TIME (SEC) =   0.0000    
       ELAPSED WALLCLOCK TIME (SEC) =          0
  
     ASYNCHRONOUS TRACKING ELEMENT LOOP STARTED
  

               CONVERGENCE CHECKS FOR EQUILIBRIUM ITERATION     2

   MAX. PENETRATION ERROR 207.629E-09   AT NODE MERGED-BODY-1.110 OF CONTACT 
   PAIR (ASSEMBLY_SURF-CONTACT,ASSEMBLY_SURF-CONTACT)
   MAX. CONTACT FORCE ERROR 1.24388E-06 AT NODE MERGED-BODY-1.110 OF CONTACT 
   PAIR (ASSEMBLY_SURF-CONTACT,ASSEMBLY_SURF-CONTACT)
          THE CONTACT CONSTRAINTS HAVE CONVERGED.

 AVERAGE FORCE                      5.384E-03   TIME AVG. FORCE       2.482E-03
 LARGEST RESIDUAL FORCE            -6.199E-06   AT NODE        178   DOF  1
   INSTANCE: MERGED-BODY-1                                                                   
 LARGEST INCREMENT OF DISP.         0.325       AT NODE        105   DOF  1
   INSTANCE: MERGED-BODY-1                                                                   
 LARGEST CORRECTION TO DISP.       -1.139E-03   AT NODE         34   DOF  1
   INSTANCE: MERGED-BODY-1                                                                   
          THE FORCE     EQUILIBRIUM EQUATIONS HAVE CONVERGED
          TIME INCREMENT MAY NOW INCREASE TO    0.146    

 ITERATION SUMMARY FOR THE INCREMENT:   3 TOTAL ITERATIONS, OF WHICH
   1 ARE SEVERE DISCONTINUITY ITERATIONS AND  2 ARE EQUILIBRIUM ITERATIONS.

 TIME INCREMENT COMPLETED  9.764E-02,  FRACTION OF STEP COMPLETED  0.580    
 STEP TIME COMPLETED       0.580    ,  TOTAL TIME COMPLETED        0.580    
  
     ASYNCHRONOUS OUTPUT DATABASE FRAME FLUSH STARTED
  


  INCREMENT    40 STARTS. ATTEMPT NUMBER  1, TIME INCREMENT  0.146    
  
     ASYNCHRONOUS TRACKING ELEMENT LOOP STARTED
  

  NUMBER OF EQUATIONS =     1034     NUMBER OF FLOATING PT. OPERATIONS =  1.22E+06

  USING THE DIRECT SOLVER WITH   4 PROCESSORS

     CHECK POINT   START OF SOLVER    

     CHECK POINT  END OF SOLVER       

       ELAPSED USER TIME (SEC)      =  0.10000    
       ELAPSED SYSTEM TIME (SEC)    =   0.0000    
       ELAPSED TOTAL CPU TIME (SEC) =  0.10000    
       ELAPSED WALLCLOCK TIME (SEC) =          0
  
     ASYNCHRONOUS TRACKING ELEMENT LOOP STARTED
  

               CONVERGENCE CHECKS FOR EQUILIBRIUM ITERATION     1

   MAX. PENETRATION ERROR -77.2080E-06  AT NODE MERGED-BODY-1.388 OF CONTACT 
   PAIR (ASSEMBLY_SURF-CONTACT,ASSEMBLY_SURF-CONTACT)
   MAX. CONTACT FORCE ERROR -459.636E-06   AT NODE MERGED-BODY-1.388 OF CONTACT 
   PAIR (ASSEMBLY_SURF-CONTACT,ASSEMBLY_SURF-CONTACT)
          THE CONTACT CONSTRAINTS HAVE CONVERGED.

 AVERAGE FORCE                      6.294E-03   TIME AVG. FORCE       2.577E-03
 LARGEST RESIDUAL FORCE             5.113E-03   AT NODE        180   DOF  2
   INSTANCE: MERGED-BODY-1                                                                   
 LARGEST INCREMENT OF DISP.         0.457       AT NODE        105   DOF  1
   INSTANCE: MERGED-BODY-1                                                                   
 LARGEST CORRECTION TO DISP.       -3.542E-02   AT NODE        306   DOF  1
   INSTANCE: MERGED-BODY-1                                                                   
          FORCE     EQUILIBRIUM NOT ACHIEVED WITHIN TOLERANCE.

  NUMBER OF EQUATIONS =     1034     NUMBER OF FLOATING PT. OPERATIONS =  1.22E+06

  USING THE DIRECT SOLVER WITH   4 PROCESSORS

     CHECK POINT   START OF SOLVER    

     CHECK POINT  END OF SOLVER       

       ELAPSED USER TIME (SEC)      =  0.10000    
       ELAPSED SYSTEM TIME (SEC)    =   0.0000    
       ELAPSED TOTAL CPU TIME (SEC) =  0.10000    
       ELAPSED WALLCLOCK TIME (SEC) =          0
  
     ASYNCHRONOUS TRACKING ELEMENT LOOP STARTED
  

               CONVERGENCE CHECKS FOR EQUILIBRIUM ITERATION     2

   MAX. PENETRATION ERROR -144.420E-09   AT NODE MERGED-BODY-1.109 OF CONTACT 
   PAIR (ASSEMBLY_SURF-CONTACT,ASSEMBLY_SURF-CONTACT)
   MAX. CONTACT FORCE ERROR -962.934E-09   AT NODE MERGED-BODY-1.109 OF CONTACT 
   PAIR (ASSEMBLY_SURF-CONTACT,ASSEMBLY_SURF-CONTACT)
          THE CONTACT CONSTRAINTS HAVE CONVERGED.

 AVERAGE FORCE                      6.624E-03   TIME AVG. FORCE       2.586E-03
 LARGEST RESIDUAL FORCE            -3.107E-05   AT NODE        182   DOF  1
   INSTANCE: MERGED-BODY-1                                                                   
 LARGEST INCREMENT OF DISP.         0.455       AT NODE        105   DOF  1
   INSTANCE: MERGED-BODY-1                                                                   
 LARGEST CORRECTION TO DISP.       -2.173E-03   AT NODE        105   DOF  1
   INSTANCE: MERGED-BODY-1                                                                   
          FORCE     EQUILIBRIUM NOT ACHIEVED WITHIN TOLERANCE.

  NUMBER OF EQUATIONS =     1034     NUMBER OF FLOATING PT. OPERATIONS =  1.22E+06

  USING THE DIRECT SOLVER WITH   4 PROCESSORS

     CHECK POINT   START OF SOLVER    

     CHECK POINT  END OF SOLVER       

       ELAPSED USER TIME (SEC)      =  0.10000    
       ELAPSED SYSTEM TIME (SEC)    =   0.0000    
       ELAPSED TOTAL CPU TIME (SEC) =  0.10000    
       ELAPSED WALLCLOCK TIME (SEC) =          1
  
     ASYNCHRONOUS TRACKING ELEMENT LOOP STARTED
  

               CONVERGENCE CHECKS FOR EQUILIBRIUM ITERATION     3

   MAX. PENETRATION ERROR 204.245E-12   AT NODE MERGED-BODY-1.109 OF CONTACT 
   PAIR (ASSEMBLY_SURF-CONTACT,ASSEMBLY_SURF-CONTACT)
   MAX. CONTACT FORCE ERROR 1.36183E-09 AT NODE MERGED-BODY-1.109 OF CONTACT 
   PAIR (ASSEMBLY_SURF-CONTACT,ASSEMBLY_SURF-CONTACT)
          THE CONTACT CONSTRAINTS HAVE CONVERGED.

 AVERAGE FORCE                      6.712E-03   TIME AVG. FORCE       2.588E-03
 LARGEST RESIDUAL FORCE             3.748E-07   AT NODE        182   DOF  2
   INSTANCE: MERGED-BODY-1                                                                   
 LARGEST INCREMENT OF DISP.         0.455       AT NODE        105   DOF  1
   INSTANCE: MERGED-BODY-1                                                                   
 LARGEST CORRECTION TO DISP.       -5.261E-06   AT NODE        282   DOF  1
   INSTANCE: MERGED-BODY-1                                                                   
          THE FORCE     EQUILIBRIUM EQUATIONS HAVE CONVERGED
          TIME INCREMENT MAY NOW INCREASE TO    0.220    

 ITERATION SUMMARY FOR THE INCREMENT:   3 TOTAL ITERATIONS, OF WHICH
   0 ARE SEVERE DISCONTINUITY ITERATIONS AND  3 ARE EQUILIBRIUM ITERATIONS.

 TIME INCREMENT COMPLETED  0.146    ,  FRACTION OF STEP COMPLETED  0.726    
 STEP TIME COMPLETED       0.726    ,  TOTAL TIME COMPLETED        0.726    
  
     ASYNCHRONOUS OUTPUT DATABASE FRAME FLUSH STARTED
  


  INCREMENT    41 STARTS. ATTEMPT NUMBER  1, TIME INCREMENT  0.220    
  
     ASYNCHRONOUS TRACKING ELEMENT LOOP STARTED
  

  NUMBER OF EQUATIONS =     1034     NUMBER OF FLOATING PT. OPERATIONS =  1.22E+06

  USING THE DIRECT SOLVER WITH   4 PROCESSORS

     CHECK POINT   START OF SOLVER    

     CHECK POINT  END OF SOLVER       

       ELAPSED USER TIME (SEC)      =  0.10000    
       ELAPSED SYSTEM TIME (SEC)    =   0.0000    
       ELAPSED TOTAL CPU TIME (SEC) =  0.10000    
       ELAPSED WALLCLOCK TIME (SEC) =          0
  
     ASYNCHRONOUS TRACKING ELEMENT LOOP STARTED
  

               CONVERGENCE CHECKS FOR EQUILIBRIUM ITERATION     1

   MAX. PENETRATION ERROR 34.8198E-06  AT NODE MERGED-BODY-1.110 OF CONTACT 
   PAIR (ASSEMBLY_SURF-CONTACT,ASSEMBLY_SURF-CONTACT)
   MAX. CONTACT FORCE ERROR 206.035E-06   AT NODE MERGED-BODY-1.117 OF CONTACT 
   PAIR (ASSEMBLY_SURF-CONTACT,ASSEMBLY_SURF-CONTACT)
          THE CONTACT CONSTRAINTS HAVE CONVERGED.

 AVERAGE FORCE                      8.178E-03   TIME AVG. FORCE       2.724E-03
 LARGEST RESIDUAL FORCE            -2.357E-03   AT NODE        175   DOF  2
   INSTANCE: MERGED-BODY-1                                                                   
 LARGEST INCREMENT OF DISP.         0.664       AT NODE        375   DOF  1
   INSTANCE: MERGED-BODY-1                                                                   
 LARGEST CORRECTION TO DISP.       -4.994E-02   AT NODE         33   DOF  1
   INSTANCE: MERGED-BODY-1                                                                   
          FORCE     EQUILIBRIUM NOT ACHIEVED WITHIN TOLERANCE.

  NUMBER OF EQUATIONS =     1034     NUMBER OF FLOATING PT. OPERATIONS =  1.22E+06

  USING THE DIRECT SOLVER WITH   4 PROCESSORS

     CHECK POINT   START OF SOLVER    

     CHECK POINT  END OF SOLVER       

       ELAPSED USER TIME (SEC)      =   0.0000    
       ELAPSED SYSTEM TIME (SEC)    =   0.0000    
       ELAPSED TOTAL CPU TIME (SEC) =   0.0000    
       ELAPSED WALLCLOCK TIME (SEC) =          0
  
     ASYNCHRONOUS TRACKING ELEMENT LOOP STARTED
  

               CONVERGENCE CHECKS FOR EQUILIBRIUM ITERATION     2

   MAX. PENETRATION ERROR -204.371E-09   AT NODE MERGED-BODY-1.109 OF CONTACT 
   PAIR (ASSEMBLY_SURF-CONTACT,ASSEMBLY_SURF-CONTACT)
   MAX. CONTACT FORCE ERROR -1.48991E-06 AT NODE MERGED-BODY-1.109 OF CONTACT 
   PAIR (ASSEMBLY_SURF-CONTACT,ASSEMBLY_SURF-CONTACT)
          THE CONTACT CONSTRAINTS HAVE CONVERGED.

 AVERAGE FORCE                      8.652E-03   TIME AVG. FORCE       2.736E-03
 LARGEST RESIDUAL FORCE            -6.623E-05   AT NODE        179   DOF  2
   INSTANCE: MERGED-BODY-1                                                                   
 LARGEST INCREMENT OF DISP.         0.660       AT NODE        375   DOF  1
   INSTANCE: MERGED-BODY-1                                                                   
 LARGEST CORRECTION TO DISP.       -3.511E-03   AT NODE        105   DOF  1
   INSTANCE: MERGED-BODY-1                                                                   
          FORCE     EQUILIBRIUM NOT ACHIEVED WITHIN TOLERANCE.

  NUMBER OF EQUATIONS =     1034     NUMBER OF FLOATING PT. OPERATIONS =  1.22E+06

  USING THE DIRECT SOLVER WITH   4 PROCESSORS

     CHECK POINT   START OF SOLVER    

     CHECK POINT  END OF SOLVER       

       ELAPSED USER TIME (SEC)      =  0.10000    
       ELAPSED SYSTEM TIME (SEC)    =   0.0000    
       ELAPSED TOTAL CPU TIME (SEC) =  0.10000    
       ELAPSED WALLCLOCK TIME (SEC) =          0
  
     ASYNCHRONOUS TRACKING ELEMENT LOOP STARTED
  

               CONVERGENCE CHECKS FOR EQUILIBRIUM ITERATION     3

   MAX. PENETRATION ERROR -935.124E-12   AT NODE MERGED-BODY-1.109 OF CONTACT 
   PAIR (ASSEMBLY_SURF-CONTACT,ASSEMBLY_SURF-CONTACT)
   MAX. CONTACT FORCE ERROR -6.81725E-09 AT NODE MERGED-BODY-1.109 OF CONTACT 
   PAIR (ASSEMBLY_SURF-CONTACT,ASSEMBLY_SURF-CONTACT)
          THE CONTACT CONSTRAINTS HAVE CONVERGED.

 AVERAGE FORCE                      8.797E-03   TIME AVG. FORCE       2.739E-03
 LARGEST RESIDUAL FORCE             9.199E-07   AT NODE        182   DOF  2
   INSTANCE: MERGED-BODY-1                                                                   
 LARGEST INCREMENT OF DISP.         0.660       AT NODE        375   DOF  1
   INSTANCE: MERGED-BODY-1                                                                   
 LARGEST CORRECTION TO DISP.       -7.330E-06   AT NODE         34   DOF  1
   INSTANCE: MERGED-BODY-1                                                                   
          THE FORCE     EQUILIBRIUM EQUATIONS HAVE CONVERGED

 ITERATION SUMMARY FOR THE INCREMENT:   3 TOTAL ITERATIONS, OF WHICH
   0 ARE SEVERE DISCONTINUITY ITERATIONS AND  3 ARE EQUILIBRIUM ITERATIONS.

 TIME INCREMENT COMPLETED  0.220    ,  FRACTION OF STEP COMPLETED  0.946    
 STEP TIME COMPLETED       0.946    ,  TOTAL TIME COMPLETED        0.946    
  
     ASYNCHRONOUS OUTPUT DATABASE FRAME FLUSH STARTED
  


  INCREMENT    42 STARTS. ATTEMPT NUMBER  1, TIME INCREMENT  5.424E-02
  
     ASYNCHRONOUS TRACKING ELEMENT LOOP STARTED
  

  NUMBER OF EQUATIONS =     1034     NUMBER OF FLOATING PT. OPERATIONS =  1.22E+06

  USING THE DIRECT SOLVER WITH   4 PROCESSORS

     CHECK POINT   START OF SOLVER    

     CHECK POINT  END OF SOLVER       

       ELAPSED USER TIME (SEC)      =  0.10000    
       ELAPSED SYSTEM TIME (SEC)    =   0.0000    
       ELAPSED TOTAL CPU TIME (SEC) =  0.10000    
       ELAPSED WALLCLOCK TIME (SEC) =          0
  
     ASYNCHRONOUS TRACKING ELEMENT LOOP STARTED
  

               CONVERGENCE CHECKS FOR EQUILIBRIUM ITERATION     1

   MAX. PENETRATION ERROR 919.285E-09   AT NODE MERGED-BODY-1.113 OF CONTACT 
   PAIR (ASSEMBLY_SURF-CONTACT,ASSEMBLY_SURF-CONTACT)
   MAX. CONTACT FORCE ERROR 5.54946E-06 AT NODE MERGED-BODY-1.113 OF CONTACT 
   PAIR (ASSEMBLY_SURF-CONTACT,ASSEMBLY_SURF-CONTACT)
          THE CONTACT CONSTRAINTS HAVE CONVERGED.

 AVERAGE FORCE                      9.137E-03   TIME AVG. FORCE       2.892E-03
 LARGEST RESIDUAL FORCE             3.220E-05   AT NODE        180   DOF  2
   INSTANCE: MERGED-BODY-1                                                                   
 LARGEST INCREMENT OF DISP.         0.156       AT NODE        375   DOF  1
   INSTANCE: MERGED-BODY-1                                                                   
 LARGEST CORRECTION TO DISP.       -7.666E-03   AT NODE        294   DOF  1
   INSTANCE: MERGED-BODY-1                                                                   
          FORCE     EQUILIBRIUM NOT ACHIEVED WITHIN TOLERANCE.

  NUMBER OF EQUATIONS =     1034     NUMBER OF FLOATING PT. OPERATIONS =  1.22E+06

  USING THE DIRECT SOLVER WITH   4 PROCESSORS

     CHECK POINT   START OF SOLVER    

     CHECK POINT  END OF SOLVER       

       ELAPSED USER TIME (SEC)      =  0.10000    
       ELAPSED SYSTEM TIME (SEC)    =   0.0000    
       ELAPSED TOTAL CPU TIME (SEC) =  0.10000    
       ELAPSED WALLCLOCK TIME (SEC) =          0
  
     ASYNCHRONOUS TRACKING ELEMENT LOOP STARTED
  

               CONVERGENCE CHECKS FOR EQUILIBRIUM ITERATION     2

   MAX. PENETRATION ERROR -8.20271E-09 AT NODE MERGED-BODY-1.109 OF CONTACT 
   PAIR (ASSEMBLY_SURF-CONTACT,ASSEMBLY_SURF-CONTACT)
   MAX. CONTACT FORCE ERROR -58.0659E-09  AT NODE MERGED-BODY-1.109 OF CONTACT 
   PAIR (ASSEMBLY_SURF-CONTACT,ASSEMBLY_SURF-CONTACT)
          THE CONTACT CONSTRAINTS HAVE CONVERGED.

 AVERAGE FORCE                      9.313E-03   TIME AVG. FORCE       2.896E-03
 LARGEST RESIDUAL FORCE            -5.268E-07   AT NODE        178   DOF  1
   INSTANCE: MERGED-BODY-1                                                                   
 LARGEST INCREMENT OF DISP.         0.156       AT NODE        375   DOF  1
   INSTANCE: MERGED-BODY-1                                                                   
 LARGEST CORRECTION TO DISP.       -1.337E-04   AT NODE        375   DOF  1
   INSTANCE: MERGED-BODY-1                                                                   
          THE FORCE     EQUILIBRIUM EQUATIONS HAVE CONVERGED

 ITERATION SUMMARY FOR THE INCREMENT:   2 TOTAL ITERATIONS, OF WHICH
   0 ARE SEVERE DISCONTINUITY ITERATIONS AND  2 ARE EQUILIBRIUM ITERATIONS.

 TIME INCREMENT COMPLETED  5.424E-02,  FRACTION OF STEP COMPLETED   1.00    
 STEP TIME COMPLETED        1.00    ,  TOTAL TIME COMPLETED         1.00    


          THE ANALYSIS HAS BEEN COMPLETED



     ANALYSIS SUMMARY:
     TOTAL OF         42  INCREMENTS
                      12  CUTBACKS IN AUTOMATIC INCREMENTATION
                     161  ITERATIONS INCLUDING CONTACT ITERATIONS IF PRESENT
                     161  PASSES THROUGH THE EQUATION SOLVER OF WHICH 
                     161  INVOLVE MATRIX DECOMPOSITION, INCLUDING
                       0  DECOMPOSITION(S) OF THE MASS MATRIX
                       1  REORDERING OF EQUATIONS TO MINIMIZE WAVEFRONT
                       0  ADDITIONAL RESIDUAL EVALUATIONS FOR LINE SEARCHES
                       0  ADDITIONAL OPERATOR EVALUATIONS FOR LINE SEARCHES
                       5  WARNING MESSAGES DURING USER INPUT PROCESSING
                      38  WARNING MESSAGES DURING ANALYSIS
                       0  ANALYSIS WARNINGS ARE NUMERICAL PROBLEM MESSAGES
                      37  ANALYSIS WARNINGS ARE NEGATIVE EIGENVALUE MESSAGES
                       0  ERROR MESSAGES



     JOB TIME SUMMARY
       USER TIME (SEC)      =   33.100    
       SYSTEM TIME (SEC)    =   6.2000    
       TOTAL CPU TIME (SEC) =   39.300    
       WALLCLOCK TIME (SEC) =         27
