*Heading
** Job name: Job-2 Model name: Model-2
** Generated by: Abaqus/CAE 6.14-5
*Preprint, echo=NO, model=NO, history=NO, contact=NO
**
** PARTS
**
*Part, name=Base-C
*Node
      1,           0.,           0.
      2,           1.,           0.
      3,           2.,           0.
      4,           3.,           0.
      5,           4.,           0.
      6,           5.,           0.
      7,           6.,           0.
      8,           7.,           0.
      9,           8.,           0.
     10,           9.,           0.
     11,          10.,           0.
     12,           0.,           1.
     13,           1.,           1.
     14,           2.,           1.
     15,           3.,           1.
     16,           4.,           1.
     17,           5.,           1.
     18,           6.,           1.
     19,           7.,           1.
     20,           8.,           1.
** ... 43 like lines cut
*Element, type=CPS6M
 1,  1,  2, 13, 23, 24, 25
 2, 13, 12,  1, 26, 27, 25
 3,  2,  3, 14, 28, 29, 30
 4, 14, 13,  2, 31, 24, 30
 5,  3,  4, 15, 32, 33, 34
 6, 15, 14,  3, 35, 29, 34
 7,  4,  5, 16, 36, 37, 38
 8, 16, 15,  4, 39, 33, 38
 9,  5,  6, 17, 40, 41, 42
10, 17, 16,  5, 43, 37, 42
11,  6,  7, 18, 44, 45, 46
12, 18, 17,  6, 47, 41, 46
13,  7,  8, 19, 48, 49, 50
14, 19, 18,  7, 51, 45, 50
15,  8,  9, 20, 52, 53, 54
16, 20, 19,  8, 55, 49, 54
17,  9, 10, 21, 56, 57, 58
18, 21, 20,  9, 59, 53, 58
19, 10, 11, 22, 60, 61, 62
20, 22, 21, 10, 63, 57, 62
*Nset, nset=Set-Base-C, generate
  1,  63,   1
*Elset, elset=Set-Base-C, generate
  1,  20,   1
*Elset, elset=_Top-Suf-BaseC_S1, internal, generate
  2,  20,   2
*Surface, type=ELEMENT, name=Top-Suf-BaseC
_Top-Suf-BaseC_S1, S1
** Section: Section-steel
*Solid Section, elset=Set-Base-C, material=Steel
,
*End Part
**  
*Part, name=Merged-Body
*Node
      1,           0.,         -2.5
      2,         33.5,         -2.5
      3,         33.5,   -2.4000001
      4,           0.,   -2.4000001
      5,           0.,          -5.
      6,         33.5,          -5.
      7,           0.,           0.
      8,          6.5,           0.
      9,          6.5,          10.
     10,          9.5,          10.
     11,          9.5,           0.
     12,         11.5,           0.
     13,         11.5,          10.
     14,          12.,          10.
     15,          12.,           0.
     16,          14.,           0.
     17,          14.,          10.
     18,         14.5,          10.
     19,         14.5,           0.
     20,         16.5,           0.
** ... 434 like lines cut
*Element, type=CPS6M
 1,   1,  47,  66, 139, 140, 141
 2,  66,   4,   1, 142, 143, 141
 3,  47,  48,  65, 144, 145, 146
 4,  65,  66,  47, 147, 140, 146
 5,  48,  49,  64, 148, 149, 150
 6,  64,  65,  48, 151, 145, 150
 7,  49,  50,  63, 152, 153, 154
 8,  63,  64,  49, 155, 149, 154
 9,  50,  51,  62, 156, 157, 158
10,  62,  63,  50, 159, 153, 158
11,  51,  52,  61, 160, 161, 162
12,  61,  62,  51, 163, 157, 162
13,  52,  53,  60, 164, 165, 166
14,  60,  61,  52, 167, 161, 166
15,  53,  54,  59, 168, 169, 170
16,  59,  60,  53, 171, 165, 170
17,  54,  55,  58, 172, 173, 174
18,  58,  59,  54, 175, 169, 174
19,  55,  56,  57, 176, 177, 178
20,  57,  58,  55, 179, 173, 178
** ... 154 like lines cut
*Nset, nset=Set-Base-A
   3,   4,   7,   8,  11,  12,  15,  16,  19,  20,  23,  24,  27,  28,  57,  58
  59,  60,  61,  62,  63,  64,  65,  66,  77, 129, 130, 131, 135, 136, 137, 138
 142, 147, 151, 155, 159, 163, 167, 171, 175, 179, 183, 234, 254, 271, 288, 320
 366, 397, 408, 409, 410, 411, 412, 413, 414, 415, 416, 417, 418, 419, 420, 421
 422, 423, 424, 425, 426, 427, 428, 429, 430, 431, 432, 433, 434, 435, 436, 437
 438, 439, 440, 441, 442, 443, 444, 445, 446, 447, 448, 449, 450, 451, 452, 453
 454,
*Elset, elset=Set-Base-A, generate
 141,  174,    1
*Nset, nset=Set-Base-B
   1,   2,   5,   6,  47,  48,  49,  50,  51,  52,  53,  54,  55,  56,  67,  68
  69,  70,  71,  72,  73,  74,  75,  76, 139, 144, 148, 152, 156, 160, 164, 168
 172, 176, 180, 184, 185, 186, 187, 188, 189, 190, 191, 192, 193, 194, 195, 196
 197, 198, 199, 200, 201, 202, 203, 204, 205, 206, 207, 208, 209, 210, 211, 212
 213, 214, 215, 216, 217
*Elset, elset=Set-Base-B, generate
 23,  44,   1
*Nset, nset=Set-Paper
   1,   2,   3,   4,  47,  48,  49,  50,  51,  52,  53,  54,  55,  56,  57,  58
  59,  60,  61,  62,  63,  64,  65,  66, 139, 140, 141, 142, 143, 144, 145, 146
 147, 148, 149, 150, 151, 152, 153, 154, 155, 156, 157, 158, 159, 160, 161, 162
 163, 164, 165, 166, 167, 168, 169, 170, 171, 172, 173, 174, 175, 176, 177, 178
 179, 180, 181, 182, 183
*Elset, elset=Set-Paper, generate
  1,  22,   1
*Nset, nset=Set-Main-Body
   7,   8,   9,  10,  11,  12,  13,  14,  15,  16,  17,  18,  19,  20,  21,  22
  23,  24,  25,  26,  27,  28,  29,  30,  31,  32,  33,  34,  35,  36,  37,  38
  39,  40,  41,  42,  43,  44,  45,  46,  77,  78,  79,  80,  81,  82,  83,  84
  85,  86,  87,  88,  89,  90,  91,  92,  93,  94,  95,  96,  97,  98,  99, 100
 101, 102, 103, 104, 105, 106, 107, 108, 109, 110, 111, 112, 113, 114, 115, 116
 117, 118, 119, 120, 121, 122, 123, 124, 125, 126, 127, 128, 132, 133, 134, 218
 219, 220, 221, 222, 223, 224, 225, 226, 227, 228, 229, 230, 231, 232, 233, 234
 235, 236, 237, 238, 239, 240, 241, 242, 243, 244, 245, 246, 247, 248, 249, 250
 251, 252, 253, 254, 255, 256, 257, 258, 259, 260, 261, 262, 263, 264, 265, 266
 267, 268, 269, 270, 271, 272, 273, 274, 275, 276, 277, 278, 279, 280, 281, 282
 283, 284, 285, 286, 287, 288, 289, 290, 291, 292, 293, 294, 295, 296, 297, 298
 299, 300, 301, 302, 303, 304, 305, 306, 307, 308, 309, 310, 311, 312, 313, 314
 315, 316, 317, 318, 319, 320, 321, 322, 323, 324, 325, 326, 327, 328, 329, 330
 331, 332, 333, 334, 335, 336, 337, 338, 339, 340, 341, 342, 343, 344, 345, 346
 347, 348, 349, 350, 351, 352, 353, 354, 355, 356, 357, 358, 359, 360, 361, 362
 363, 364, 365, 366, 367, 368, 369, 370, 371, 372, 373, 374, 375, 376, 377, 378
 379, 380, 381, 382, 383, 384, 385, 386, 387, 388, 389, 390, 391, 392, 393, 394
 395, 396, 397, 398, 399, 400, 401, 402, 403, 404, 405, 406, 407
*Elset, elset=Set-Main-Body, generate
  45,  140,    1
*Elset, elset=_Top-of-B_S1, internal, generate
  1,  21,   2
*Surface, type=ELEMENT, name=Top-of-B
_Top-of-B_S1, S1
*Elset, elset=_Surf-Bot-Mer_S1, internal, generate
 23,  43,   2
*Surface, type=ELEMENT, name=Surf-Bot-Mer
_Surf-Bot-Mer_S1, S1
*Elset, elset="_Surf-Inner Cavity_S2", internal
  47,  53,  54,  55,  57,  59,  60,  61,  63,  65,  66,  67,  69,  71,  72,  73
  74,  76,  78,  80,  82,  83,  88,  92,  96, 100, 102, 103, 105, 135, 138, 139
 144, 146, 148, 150
*Elset, elset="_Surf-Inner Cavity_S3", internal
  49, 155
*Elset, elset="_Surf-Inner Cavity_S1", internal
  52,  87,  91,  95,  99, 163, 164, 165
*Surface, type=ELEMENT, name="Surf-Inner Cavity"
"_Surf-Inner Cavity_S2", S2
"_Surf-Inner Cavity_S3", S3
"_Surf-Inner Cavity_S1", S1
** Section: Sec-Paper
*Solid Section, elset=Set-Paper, material=Paper
,
** Section: Sec-Elastosil
*Solid Section, elset=Set-Base-B, material=Elastosil
,
** Section: Sec-Elastosil
*Solid Section, elset=Set-Main-Body, material=Elastosil
,
** Section: Sec-Elastosil
*Solid Section, elset=Set-Base-A, material=Elastosil
,
*End Part
**  
**
** ASSEMBLY
**
*Assembly, name=Assembly
**  
*Instance, name=Base-C, part=Base-C
        28.5,          -6.,           0.
*End Instance
**  
*Instance, name=Merged-Body-1, part=Merged-Body
*End Instance
**  
*Nset, nset=Set-FixedFace, instance=Merged-Body-1
   7,  46, 126, 127, 128, 394, 396, 400, 407
*Elset, elset=Set-FixedFace, instance=Merged-Body-1
 130, 132, 133, 140
*Nset, nset=canh_fix_baseC, instance=Base-C
 11, 22, 61
*Elset, elset=canh_fix_baseC, instance=Base-C
 19,
*Elset, elset=_Surf-Contact_S3, internal, instance=Merged-Body-1
  86,  89,  90,  93,  94,  97,  98, 101
*Elset, elset=_Surf-Contact_S1, internal, instance=Merged-Body-1, generate
 114,  129,    1
*Surface, type=ELEMENT, name=Surf-Contact
_Surf-Contact_S3, S3
_Surf-Contact_S1, S1
*End Assembly
** 
** MATERIALS
** 
*Material, name=Elastosil
*Density
 1.13e-09,
*Hyperelastic, yeoh
 0.11, 0.02,   0.,   0.,   0.,   0.
*Material, name=Paper
*Density
 7.5e-10,
*Elastic
6500., 0.2
*Material, name=Steel
*Density
 7.825e-06,
*Elastic
 2.0694e+08, 0.3
** 
** INTERACTION PROPERTIES
** 
*Surface Interaction, name="Chamber Walls"
1.,
*Friction
0.,
*Surface Interaction, name=IntProp-1
1.,
*Friction, slip tolerance=0.005
 0.3,
** 
** BOUNDARY CONDITIONS
** 
** Name: BC-3 Type: Symmetry/Antisymmetry/Encastre
*Boundary
canh_fix_baseC, ENCASTRE
** 
** INTERACTIONS
** 
** Interaction: Walls
*Contact Pair, interaction="Chamber Walls", type=SURFACE TO SURFACE
Surf-Contact,
** Interaction: contact_baseC_gripper
*Contact Pair, interaction=IntProp-1, type=SURFACE TO SURFACE
Base-C.Top-Suf-BaseC, Merged-Body-1.Surf-Bot-Mer
** ----------------------------------------------------------------
** 
** STEP: Step-Pressure
** 
*Step, name=Step-Pressure, nlgeom=YES
*Static
1., 1., 1e-05, 1.
** 
** BOUNDARY CONDITIONS
** 
** Name: Fixed End Type: Symmetry/Antisymmetry/Encastre
*Boundary
Set-FixedFace, ENCASTRE
** 
** LOADS
** 
** Name: Load-Pressure   Type: Pressure
*Dsload
Merged-Body-1."Surf-Inner Cavity", P, 0.01
** 
** OUTPUT REQUESTS
** 
*Restart, write, frequency=0
** 
** FIELD OUTPUT: F-Output-1
** 
*Output, field
*Node Output
RF, U
*Contact Output
CFORCE, 
** 
** HISTORY OUTPUT: H-Output-1
** 
*Output, history
*Node Output, nset=canh_fix_baseC
RF1, RF2, RF3, RM1, RM2, RM3
*End Step
