 Abaqus/Standard 6.14-5                  DATE 23-Nov-2020 TIME 13:36:11
 SUMMARY OF JOB INFORMATION:
 STEP  INC ATT SEVERE EQUIL TOTAL  TOTAL      STEP       INC OF       DOF    IF
               DISCON ITERS ITERS  TIME/    TIME/LPF    TIME/LPF    MONITOR RIKS
               ITERS               FREQ
   1     1   1U    1     1     2  0.000      0.000      1.000     
   1     1   2U   11     0    11  0.000      0.000      0.2500    
   1     1   3U    6     0     6  0.000      0.000      0.06250   
   1     1   4     8     3    11  0.0156     0.0156     0.01563   
   1     2   1     0     2     2  0.0273     0.0273     0.01172   
   1     3   1     0     2     2  0.0391     0.0391     0.01172   
   1     4   1     0     2     2  0.0566     0.0566     0.01758   
   1     5   1     0     2     2  0.0830     0.0830     0.02637   
   1     6   1     0     3     3  0.123      0.123      0.03955   
   1     7   1     0     3     3  0.182      0.182      0.05933   
   1     8   1U    8     0     8  0.182      0.182      0.08899   
   1     8   2     0     2     2  0.204      0.204      0.02225   
   1     9   1U    9     0     9  0.204      0.204      0.03337   
   1     9   2U    9     0     9  0.204      0.204      0.008343  
   1     9   3U    5     0     5  0.204      0.204      0.002086  
   1     9   4     0     2     2  0.205      0.205      0.0005214 
   1    10   1     1     2     3  0.205      0.205      0.0007821 
   1    11   1     0     2     2  0.207      0.207      0.001173  
   1    12   1     0     1     1  0.208      0.208      0.001760  
   1    13   1U    7     0     7  0.208      0.208      0.002640  
   1    13   2U    5     0     5  0.208      0.208      0.0006599 
   1    13   3     0     2     2  0.209      0.209      0.0001650 
   1    14   1     1     2     3  0.209      0.209      0.0002475 
   1    15   1     0     2     2  0.209      0.209      0.0003712 
   1    16   1     0     1     1  0.210      0.210      0.0005568 
   1    17   1U    5     0     5  0.210      0.210      0.0008352 
   1    17   2     0     1     1  0.210      0.210      0.0002088 
   1    18   1U    5     0     5  0.210      0.210      0.0003132 
   1    18   2     0     1     1  0.210      0.210      7.830e-005
   1    19   1     1     2     3  0.210      0.210      0.0001175 
   1    20   1     0     2     2  0.210      0.210      0.0001762 
   1    21   1     0     1     1  0.211      0.211      0.0002643 
   1    22   1     0     1     1  0.211      0.211      0.0003964 
   1    23   1     0     1     1  0.212      0.212      0.0005946 
   1    24   1     0     1     1  0.212      0.212      0.0008919 
   1    25   1     0     1     1  0.214      0.214      0.001338  
   1    26   1     0     1     1  0.216      0.216      0.002007  
   1    27   1     0     1     1  0.219      0.219      0.003010  
   1    28   1     0     1     1  0.223      0.223      0.004515  
   1    29   1     0     1     1  0.230      0.230      0.006773  
   1    30   1     0     1     1  0.240      0.240      0.01016   
   1    31   1     0     1     1  0.255      0.255      0.01524   
   1    32   1     1     2     3  0.278      0.278      0.02286   
   1    33   1     0     3     3  0.313      0.313      0.03429   
   1    34   1     1     2     3  0.364      0.364      0.05143   
   1    35   1     0     2     2  0.441      0.441      0.07715   
   1    36   1     1     2     3  0.557      0.557      0.1157    
   1    37   1     0     3     3  0.731      0.731      0.1736    
   1    38   1     0     3     3  0.991      0.991      0.2604    
   1    39   1     0     2     2  1.00       1.00       0.009121  
                          
 THE ANALYSIS HAS COMPLETED SUCCESSFULLY
