1

   Abaqus 6.14-5                                  Date 23-Nov-2020   Time 13:36:07
   For use by Supplied by Team-SolidSQUAD under license from Dassault Systemes or its subsidiary.

                                                                                 
                                                                                 
 STEP    1     INCREMENT     1     STEP TIME    0.00    


                        S T E P       1     S T A T I C   A N A L Y S I S


                                                                                          

     AUTOMATIC TIME CONTROL WITH -
          A SUGGESTED INITIAL TIME INCREMENT OF                 1.00    
          AND A TOTAL TIME PERIOD OF                            1.00    
          THE MINIMUM TIME INCREMENT ALLOWED IS                1.000E-05
          THE MAXIMUM TIME INCREMENT ALLOWED IS                 1.00    

     LINEAR EQUATION SOLVER TYPE         DIRECT SPARSE

 CONVERGENCE TOLERANCE PARAMETERS FOR FORCE    
     CRITERION FOR RESIDUAL FORCE     FOR A NONLINEAR PROBLEM          5.000E-03
     CRITERION FOR DISP.    CORRECTION IN A NONLINEAR PROBLEM          1.000E-02
     INITIAL VALUE OF TIME AVERAGE FORCE                               1.000E-02
     AVERAGE FORCE     IS TIME AVERAGE FORCE    
     ALTERNATE CRIT. FOR RESIDUAL FORCE     FOR A NONLINEAR PROBLEM    2.000E-02
     CRITERION FOR ZERO FORCE     RELATIVE TO TIME AVRG. FORCE         1.000E-05
     CRITERION FOR RESIDUAL FORCE     WHEN THERE IS ZERO FLUX          1.000E-05
     CRITERION FOR DISP.    CORRECTION WHEN THERE IS ZERO FLUX         1.000E-03
     CRITERION FOR RESIDUAL FORCE     FOR A LINEAR INCREMENT           1.000E-08
     FIELD CONVERSION RATIO                                             1.00    
     CRITERION FOR ZERO FORCE     REL. TO TIME AVRG. MAX. FORCE        1.000E-05
     CRITERION FOR ZERO DISP.    RELATIVE TO CHARACTERISTIC LENGTH     1.000E-08

     VOLUMETRIC STRAIN COMPATIBILITY TOLERANCE FOR HYBRID SOLIDS       1.000E-05
     AXIAL STRAIN COMPATIBILITY TOLERANCE FOR HYBRID BEAMS             1.000E-05
     TRANS. SHEAR STRAIN COMPATIBILITY TOLERANCE FOR HYBRID BEAMS      1.000E-05
     SOFT CONTACT CONSTRAINT COMPATIBILITY TOLERANCE FOR P>P0          5.000E-03
     SOFT CONTACT CONSTRAINT COMPATIBILITY TOLERANCE FOR P=0.0         0.100    
     CONTACT FORCE ERROR TOLERANCE FOR CONVERT SDI=YES                 1.00    
     DISPLACEMENT COMPATIBILITY TOLERANCE FOR DCOUP ELEMENTS           1.000E-05
     ROTATION COMPATIBILITY TOLERANCE FOR DCOUP ELEMENTS               1.000E-05

 EQUILIBRIUM WILL BE CHECKED FOR SEVERE DISCONTINUITY ITERATIONS

 TIME INCREMENTATION CONTROL PARAMETERS:
     FIRST EQUILIBRIUM ITERATION FOR CONSECUTIVE DIVERGENCE CHECK              4
     EQUILIBRIUM ITERATION AT WHICH LOG. CONVERGENCE RATE CHECK BEGINS         8
     EQUILIBRIUM ITERATION AFTER WHICH ALTERNATE RESIDUAL IS USED              9
     MAXIMUM EQUILIBRIUM ITERATIONS ALLOWED                                   16
     EQUILIBRIUM ITERATION COUNT FOR CUT-BACK IN NEXT INCREMENT               10
     MAXIMUM EQUILIB. ITERS IN TWO INCREMENTS FOR TIME INCREMENT INCREASE      4
     MAXIMUM ITERATIONS FOR SEVERE DISCONTINUITIES                            50
     MAXIMUM CUT-BACKS ALLOWED IN AN INCREMENT                                 5
     MAXIMUM DISCON. ITERS IN TWO INCREMENTS FOR TIME INCREMENT INCREASE      50
     MAXIMUM CONTACT AUGMENTATIONS FOR *SURFACE BEHAVIOR,AUGMENTED LAGRANGE   50
     CUT-BACK FACTOR AFTER DIVERGENCE                                 0.2500    
     CUT-BACK FACTOR FOR TOO SLOW CONVERGENCE                         0.5000    
     CUT-BACK FACTOR AFTER TOO MANY EQUILIBRIUM ITERATIONS            0.7500    
     CUT-BACK FACTOR AFTER TOO MANY SEVERE DISCONTINUITY ITERATIONS   0.2500    
     CUT-BACK FACTOR AFTER PROBLEMS IN ELEMENT ASSEMBLY               0.2500    
     INCREASE FACTOR AFTER TWO INCREMENTS THAT CONVERGE QUICKLY        1.500    
     MAX. TIME INCREMENT INCREASE FACTOR ALLOWED                       1.500    
     MAX. TIME INCREMENT INCREASE FACTOR ALLOWED (DYNAMICS)            1.250    
     MAX. TIME INCREMENT INCREASE FACTOR ALLOWED (DIFFUSION)           2.000    
     MINIMUM TIME INCREMENT RATIO FOR EXTRAPOLATION TO OCCUR          0.1000    
     MAX. RATIO OF TIME INCREMENT TO STABILITY LIMIT                   1.000    
     FRACTION OF STABILITY LIMIT FOR NEW TIME INCREMENT               0.9500    
     TIME INCREMENT INCREASE FACTOR BEFORE A TIME POINT                1.000    

 CONTACT CONTROLS APPLIED TO ALL CONTACT PAIRS:
     GLOBAL STABILIZATION CONTROL IS NOT USED
     RELATIVE PENETRATION TOLERANCE FOR AUGMENTED LAGRANGE CONTACT:
          FINITE-SLIDING SURFACE-TO-SURFACE                            5.000E-02
          OTHERWISE                                                    1.000E-03

          PRINT OF INCREMENT NUMBER, TIME, ETC., EVERY    1  INCREMENTS

     THE MAXIMUM NUMBER OF INCREMENTS IN THIS STEP IS                     100

          LARGE DISPLACEMENT THEORY WILL BE USED

          UNSYMMETRIC MATRIX STORAGE AND SOLUTION WILL BE USED

     LINEAR EXTRAPOLATION WILL BE USED

     CHARACTERISTIC ELEMENT LENGTH      2.41    

     DETAILS REGARDING ACTUAL SOLUTION WAVEFRONT REQUESTED

     DETAILED OUTPUT OF DIAGNOSTICS TO DATABASE REQUESTED

     PRINT OF INCREMENT NUMBER, TIME, ETC., TO THE MESSAGE FILE EVERY     1  INCREMENTS

     ELEMENT OPERATIONS WILL BE CARRIED OUT IN PARALLEL USING   4 PROCESSORS

     PARALLEL CONTACT TRACKING ENABLED


     COLLECTING MODEL CONSTRAINT INFORMATION FOR OVERCONSTRAINT CHECKS

     COLLECTING STEP CONSTRAINT INFORMATION FOR OVERCONSTRAINT CHECKS
 
     GPU SOLVER ACCELERATION ENABLED

  
     ASYNCHRONOUS OUTPUT DATABASE FRAME FLUSH STARTED
  


  INCREMENT     1 STARTS. ATTEMPT NUMBER  1, TIME INCREMENT   1.00    
  
     ASYNCHRONOUS TRACKING ELEMENT LOOP STARTED
  
 
     INITIAL ELEMENT LOAD BALANCE
        COMPUTE NODE   1   PROCESS    NUMBER OF ELEMENTS
                              1            74
                              2            102
                              3            46
                              4            74

  NUMBER OF EQUATIONS =     1034     NUMBER OF FLOATING PT. OPERATIONS =  1.06E+06

  USING THE DIRECT SOLVER WITH   4 PROCESSORS

     CHECK POINT   START OF SOLVER    

     CHECK POINT  END OF SOLVER       

       ELAPSED USER TIME (SEC)      =   0.0000    
       ELAPSED SYSTEM TIME (SEC)    =   0.0000    
       ELAPSED TOTAL CPU TIME (SEC) =   0.0000    
       ELAPSED WALLCLOCK TIME (SEC) =          0
 

 ***WARNING: THE SYSTEM MATRIX HAS 3 NEGATIVE EIGENVALUES.

     NEGATIVE EIGENVALUES MEAN THAT THE SYSTEM MATRIX IS NOT 
     POSITIVE DEFINITE:
     FOR EXAMPLE, A BIFURCATION (BUCKLING) LOAD MAY HAVE BEEN EXCEEDED.
  
     ASYNCHRONOUS TRACKING ELEMENT LOOP STARTED
  

                   36 SEVERE DISCONTINUITIES OCCURRED DURING THIS ITERATION.
                   33 POINTS CHANGED FROM OPEN TO CLOSED
                    3 POINTS CHANGED FROM CLOSED TO OPEN

               CONVERGENCE CHECKS FOR SEVERE DISCONTINUITY ITERATION     1

   MAX. PENETRATION ERROR 4.47419     AT NODE MERGED-BODY-1.121 OF CONTACT PAIR 
   (ASSEMBLY_SURF-CONTACT,ASSEMBLY_SURF-CONTACT)
   MAX. CONTACT FORCE ERROR 22.8266      AT NODE MERGED-BODY-1.109 OF CONTACT 
   PAIR (ASSEMBLY_SURF-CONTACT,ASSEMBLY_SURF-CONTACT)
          PENETRATION ERROR TOO LARGE COMPARED TO DISPLACEMENT INCREMENT.

 AVERAGE FORCE                      0.783       TIME AVG. FORCE       0.783    
 LARGEST RESIDUAL FORCE             -95.4       AT NODE        171   DOF  2
   INSTANCE: MERGED-BODY-1                                                                   
 LARGEST INCREMENT OF DISP.          6.84       AT NODE        376   DOF  1
   INSTANCE: MERGED-BODY-1                                                                   
 LARGEST CORRECTION TO DISP.         6.84       AT NODE        376   DOF  1
   INSTANCE: MERGED-BODY-1                                                                   
          FORCE     EQUILIBRIUM NOT ACHIEVED WITHIN TOLERANCE.

  NUMBER OF EQUATIONS =     1034     NUMBER OF FLOATING PT. OPERATIONS =  1.55E+06

  USING THE DIRECT SOLVER WITH   4 PROCESSORS

     CHECK POINT   START OF SOLVER    

     CHECK POINT  END OF SOLVER       

       ELAPSED USER TIME (SEC)      =  0.10000    
       ELAPSED SYSTEM TIME (SEC)    =   0.0000    
       ELAPSED TOTAL CPU TIME (SEC) =  0.10000    
       ELAPSED WALLCLOCK TIME (SEC) =          0
 

 ***WARNING: THE SYSTEM MATRIX HAS 26 NEGATIVE EIGENVALUES.
             EXPLANATIONS ARE SUGGESTED AFTER THE FIRST OCCURRENCE OF THIS MESSAGE.

 ***WARNING: DISPLACEMENT INCREMENT FOR CONTACT IS TOO BIG.
  
     ASYNCHRONOUS TRACKING ELEMENT LOOP STARTED
  
   ELEMENT MERGED-BODY-1.49 IS DISTORTING EXCESSIVELY.
   ELEMENT MERGED-BODY-1.49 IS DISTORTING EXCESSIVELY.
   ELEMENT MERGED-BODY-1.49 IS DISTORTING EXCESSIVELY.
   ELEMENT MERGED-BODY-1.49 IS DISTORTING EXCESSIVELY.
   ELEMENT MERGED-BODY-1.49 IS DISTORTING EXCESSIVELY.
   ELEMENT MERGED-BODY-1.49 IS DISTORTING EXCESSIVELY.
   ELEMENT MERGED-BODY-1.51 IS DISTORTING EXCESSIVELY.
   ELEMENT MERGED-BODY-1.51 IS DISTORTING EXCESSIVELY.
   ELEMENT MERGED-BODY-1.52 IS DISTORTING EXCESSIVELY.
   ELEMENT MERGED-BODY-1.52 IS DISTORTING EXCESSIVELY.
   ELEMENT MERGED-BODY-1.53 IS DISTORTING EXCESSIVELY.
   ELEMENT MERGED-BODY-1.53 IS DISTORTING EXCESSIVELY.
   ELEMENT MERGED-BODY-1.53 IS DISTORTING EXCESSIVELY.
   ELEMENT MERGED-BODY-1.53 IS DISTORTING EXCESSIVELY.
   ELEMENT MERGED-BODY-1.53 IS DISTORTING EXCESSIVELY.
   ELEMENT MERGED-BODY-1.53 IS DISTORTING EXCESSIVELY.
   ELEMENT MERGED-BODY-1.129 IS DISTORTING EXCESSIVELY.
   ELEMENT MERGED-BODY-1.129 IS DISTORTING EXCESSIVELY.
   ELEMENT MERGED-BODY-1.129 IS DISTORTING EXCESSIVELY.
   ELEMENT MERGED-BODY-1.129 IS DISTORTING EXCESSIVELY.
   ELEMENT MERGED-BODY-1.129 IS DISTORTING EXCESSIVELY.
   ELEMENT MERGED-BODY-1.129 IS DISTORTING EXCESSIVELY.
   ELEMENT MERGED-BODY-1.139 IS DISTORTING EXCESSIVELY.
   ELEMENT MERGED-BODY-1.145 IS DISTORTING EXCESSIVELY.
   ELEMENT MERGED-BODY-1.146 IS DISTORTING EXCESSIVELY.
   ELEMENT MERGED-BODY-1.146 IS DISTORTING EXCESSIVELY.
   ELEMENT MERGED-BODY-1.146 IS DISTORTING EXCESSIVELY.
   ELEMENT MERGED-BODY-1.147 IS DISTORTING EXCESSIVELY.
   ELEMENT MERGED-BODY-1.147 IS DISTORTING EXCESSIVELY.
   ELEMENT MERGED-BODY-1.147 IS DISTORTING EXCESSIVELY.
   ELEMENT MERGED-BODY-1.159 IS DISTORTING EXCESSIVELY.
   ELEMENT MERGED-BODY-1.167 IS DISTORTING EXCESSIVELY.
   ELEMENT MERGED-BODY-1.172 IS DISTORTING EXCESSIVELY.
   ELEMENT MERGED-BODY-1.55 IS DISTORTING EXCESSIVELY.
   ELEMENT MERGED-BODY-1.55 IS DISTORTING EXCESSIVELY.
   ELEMENT MERGED-BODY-1.57 IS DISTORTING EXCESSIVELY.
   ELEMENT MERGED-BODY-1.57 IS DISTORTING EXCESSIVELY.
   ELEMENT MERGED-BODY-1.57 IS DISTORTING EXCESSIVELY.
   ELEMENT MERGED-BODY-1.57 IS DISTORTING EXCESSIVELY.
   ELEMENT MERGED-BODY-1.57 IS DISTORTING EXCESSIVELY.
   ELEMENT MERGED-BODY-1.57 IS DISTORTING EXCESSIVELY.
   ELEMENT MERGED-BODY-1.58 IS DISTORTING EXCESSIVELY.
   ELEMENT MERGED-BODY-1.58 IS DISTORTING EXCESSIVELY.
   ELEMENT MERGED-BODY-1.58 IS DISTORTING EXCESSIVELY.
   ELEMENT MERGED-BODY-1.58 IS DISTORTING EXCESSIVELY.
   ELEMENT MERGED-BODY-1.58 IS DISTORTING EXCESSIVELY.
   ELEMENT MERGED-BODY-1.58 IS DISTORTING EXCESSIVELY.
   ELEMENT MERGED-BODY-1.59 IS DISTORTING EXCESSIVELY.
   ELEMENT MERGED-BODY-1.60 IS DISTORTING EXCESSIVELY.
   ELEMENT MERGED-BODY-1.60 IS DISTORTING EXCESSIVELY.
   ELEMENT MERGED-BODY-1.60 IS DISTORTING EXCESSIVELY.
   ELEMENT MERGED-BODY-1.60 IS DISTORTING EXCESSIVELY.
   ELEMENT MERGED-BODY-1.61 IS DISTORTING EXCESSIVELY.
   ELEMENT MERGED-BODY-1.61 IS DISTORTING EXCESSIVELY.
   ELEMENT MERGED-BODY-1.61 IS DISTORTING EXCESSIVELY.
   ELEMENT MERGED-BODY-1.61 IS DISTORTING EXCESSIVELY.
   ELEMENT MERGED-BODY-1.61 IS DISTORTING EXCESSIVELY.
   ELEMENT MERGED-BODY-1.63 IS DISTORTING EXCESSIVELY.
   ELEMENT MERGED-BODY-1.63 IS DISTORTING EXCESSIVELY.
   ELEMENT MERGED-BODY-1.69 IS DISTORTING EXCESSIVELY.
   ELEMENT MERGED-BODY-1.77 IS DISTORTING EXCESSIVELY.
   ELEMENT MERGED-BODY-1.78 IS DISTORTING EXCESSIVELY.
   ELEMENT MERGED-BODY-1.80 IS DISTORTING EXCESSIVELY.
   ELEMENT MERGED-BODY-1.80 IS DISTORTING EXCESSIVELY.
   ELEMENT MERGED-BODY-1.82 IS DISTORTING EXCESSIVELY.
   ELEMENT MERGED-BODY-1.82 IS DISTORTING EXCESSIVELY.
   ELEMENT MERGED-BODY-1.82 IS DISTORTING EXCESSIVELY.
   ELEMENT MERGED-BODY-1.82 IS DISTORTING EXCESSIVELY.
   ELEMENT MERGED-BODY-1.86 IS DISTORTING EXCESSIVELY.
   ELEMENT MERGED-BODY-1.86 IS DISTORTING EXCESSIVELY.
   ELEMENT MERGED-BODY-1.87 IS DISTORTING EXCESSIVELY.
   ELEMENT MERGED-BODY-1.87 IS DISTORTING EXCESSIVELY.
   ELEMENT MERGED-BODY-1.88 IS DISTORTING EXCESSIVELY.
   ELEMENT MERGED-BODY-1.88 IS DISTORTING EXCESSIVELY.
   ELEMENT MERGED-BODY-1.88 IS DISTORTING EXCESSIVELY.
   ELEMENT MERGED-BODY-1.88 IS DISTORTING EXCESSIVELY.
   ELEMENT MERGED-BODY-1.89 IS DISTORTING EXCESSIVELY.
   ELEMENT MERGED-BODY-1.89 IS DISTORTING EXCESSIVELY.
   ELEMENT MERGED-BODY-1.90 IS DISTORTING EXCESSIVELY.
   ELEMENT MERGED-BODY-1.90 IS DISTORTING EXCESSIVELY.
   ELEMENT MERGED-BODY-1.90 IS DISTORTING EXCESSIVELY.
   ELEMENT MERGED-BODY-1.90 IS DISTORTING EXCESSIVELY.
   ELEMENT MERGED-BODY-1.91 IS DISTORTING EXCESSIVELY.
   ELEMENT MERGED-BODY-1.91 IS DISTORTING EXCESSIVELY.
   ELEMENT MERGED-BODY-1.91 IS DISTORTING EXCESSIVELY.
   ELEMENT MERGED-BODY-1.91 IS DISTORTING EXCESSIVELY.
   ELEMENT MERGED-BODY-1.91 IS DISTORTING EXCESSIVELY.
   ELEMENT MERGED-BODY-1.92 IS DISTORTING EXCESSIVELY.
   ELEMENT MERGED-BODY-1.92 IS DISTORTING EXCESSIVELY.
   ELEMENT MERGED-BODY-1.92 IS DISTORTING EXCESSIVELY.
   ELEMENT MERGED-BODY-1.92 IS DISTORTING EXCESSIVELY.
   ELEMENT MERGED-BODY-1.93 IS DISTORTING EXCESSIVELY.
   ELEMENT MERGED-BODY-1.93 IS DISTORTING EXCESSIVELY.
   ELEMENT MERGED-BODY-1.94 IS DISTORTING EXCESSIVELY.
   ELEMENT MERGED-BODY-1.94 IS DISTORTING EXCESSIVELY.
   ELEMENT MERGED-BODY-1.96 IS DISTORTING EXCESSIVELY.
   ELEMENT MERGED-BODY-1.96 IS DISTORTING EXCESSIVELY.
   ELEMENT MERGED-BODY-1.96 IS DISTORTING EXCESSIVELY.
   ELEMENT MERGED-BODY-1.96 IS DISTORTING EXCESSIVELY.
   ELEMENT MERGED-BODY-1.97 IS DISTORTING EXCESSIVELY.
   ELEMENT MERGED-BODY-1.98 IS DISTORTING EXCESSIVELY.
   ELEMENT MERGED-BODY-1.100 IS DISTORTING EXCESSIVELY.
   ELEMENT MERGED-BODY-1.100 IS DISTORTING EXCESSIVELY.
   ELEMENT MERGED-BODY-1.114 IS DISTORTING EXCESSIVELY.
   ELEMENT MERGED-BODY-1.114 IS DISTORTING EXCESSIVELY.
   ELEMENT MERGED-BODY-1.115 IS DISTORTING EXCESSIVELY.
   ELEMENT MERGED-BODY-1.116 IS DISTORTING EXCESSIVELY.
   ELEMENT MERGED-BODY-1.116 IS DISTORTING EXCESSIVELY.
   ELEMENT MERGED-BODY-1.120 IS DISTORTING EXCESSIVELY.
   ELEMENT MERGED-BODY-1.120 IS DISTORTING EXCESSIVELY.
   ELEMENT MERGED-BODY-1.121 IS DISTORTING EXCESSIVELY.
   ELEMENT MERGED-BODY-1.121 IS DISTORTING EXCESSIVELY.
   ELEMENT MERGED-BODY-1.121 IS DISTORTING EXCESSIVELY.
   ELEMENT MERGED-BODY-1.121 IS DISTORTING EXCESSIVELY.
   ELEMENT MERGED-BODY-1.122 IS DISTORTING EXCESSIVELY.
   ELEMENT MERGED-BODY-1.122 IS DISTORTING EXCESSIVELY.
   ELEMENT MERGED-BODY-1.122 IS DISTORTING EXCESSIVELY.
   ELEMENT MERGED-BODY-1.122 IS DISTORTING EXCESSIVELY.
   ELEMENT MERGED-BODY-1.122 IS DISTORTING EXCESSIVELY.
   ELEMENT MERGED-BODY-1.122 IS DISTORTING EXCESSIVELY.
   ELEMENT MERGED-BODY-1.124 IS DISTORTING EXCESSIVELY.
   ELEMENT MERGED-BODY-1.124 IS DISTORTING EXCESSIVELY.
   ELEMENT MERGED-BODY-1.124 IS DISTORTING EXCESSIVELY.
   ELEMENT MERGED-BODY-1.125 IS DISTORTING EXCESSIVELY.
   ELEMENT MERGED-BODY-1.125 IS DISTORTING EXCESSIVELY.
   ELEMENT MERGED-BODY-1.126 IS DISTORTING EXCESSIVELY.
   ELEMENT MERGED-BODY-1.127 IS DISTORTING EXCESSIVELY.
   ELEMENT MERGED-BODY-1.127 IS DISTORTING EXCESSIVELY.
   ELEMENT MERGED-BODY-1.127 IS DISTORTING EXCESSIVELY.
   ELEMENT MERGED-BODY-1.127 IS DISTORTING EXCESSIVELY.
   ELEMENT MERGED-BODY-1.127 IS DISTORTING EXCESSIVELY.
   ELEMENT MERGED-BODY-1.127 IS DISTORTING EXCESSIVELY.
   ELEMENT MERGED-BODY-1.128 IS DISTORTING EXCESSIVELY.

 ***WARNING: THE STRAINS ARE SO LARGE THAT THE PROGRAM WILL NOT ATTEMPT THE 
             HYPERELASTICITY CALCULATION AT 77 POINTS
 

 ***NOTE: MATERIAL CALCULATIONS FAILED TO CONVERGE OR WERE NOT ATTEMPTED AT ONE 
          OR MORE POINTS. CONVERGENCE IS JUDGED UNLIKELY.


  INCREMENT     1 STARTS. ATTEMPT NUMBER  2, TIME INCREMENT  0.250    
  
     ASYNCHRONOUS TRACKING ELEMENT LOOP STARTED
  
 
     INITIAL ELEMENT LOAD BALANCE
        COMPUTE NODE   1   PROCESS    NUMBER OF ELEMENTS
                              1            74
                              2            74
                              3            74
                              4            74

  NUMBER OF EQUATIONS =     1034     NUMBER OF FLOATING PT. OPERATIONS =  1.37E+06

  USING THE DIRECT SOLVER WITH   4 PROCESSORS

     CHECK POINT   START OF SOLVER    

     CHECK POINT  END OF SOLVER       

       ELAPSED USER TIME (SEC)      =  0.10000    
       ELAPSED SYSTEM TIME (SEC)    =   0.0000    
       ELAPSED TOTAL CPU TIME (SEC) =  0.10000    
       ELAPSED WALLCLOCK TIME (SEC) =          0
  
     ASYNCHRONOUS TRACKING ELEMENT LOOP STARTED
  

                   17 SEVERE DISCONTINUITIES OCCURRED DURING THIS ITERATION.
                   13 POINTS CHANGED FROM OPEN TO CLOSED
                    4 POINTS CHANGED FROM CLOSED TO OPEN

               CONVERGENCE CHECKS FOR SEVERE DISCONTINUITY ITERATION     1

   MAX. PENETRATION ERROR 363.058E-03   AT NODE MERGED-BODY-1.390 OF CONTACT 
   PAIR (ASSEMBLY_SURF-CONTACT,ASSEMBLY_SURF-CONTACT)
   MAX. CONTACT FORCE ERROR 2.14255     AT NODE MERGED-BODY-1.390 OF CONTACT 
   PAIR (ASSEMBLY_SURF-CONTACT,ASSEMBLY_SURF-CONTACT)
          PENETRATION ERROR TOO LARGE COMPARED TO DISPLACEMENT INCREMENT.

 AVERAGE FORCE                      1.197E-02   TIME AVG. FORCE       1.197E-02
 LARGEST RESIDUAL FORCE             -1.70       AT NODE        183   DOF  2
   INSTANCE: MERGED-BODY-1                                                                   
 LARGEST INCREMENT OF DISP.          1.07       AT NODE        376   DOF  1
   INSTANCE: MERGED-BODY-1                                                                   
 LARGEST CORRECTION TO DISP.         1.07       AT NODE        376   DOF  1
   INSTANCE: MERGED-BODY-1                                                                   
          FORCE     EQUILIBRIUM NOT ACHIEVED WITHIN TOLERANCE.

  NUMBER OF EQUATIONS =     1034     NUMBER OF FLOATING PT. OPERATIONS =  1.27E+06

  USING THE DIRECT SOLVER WITH   4 PROCESSORS

     CHECK POINT   START OF SOLVER    

     CHECK POINT  END OF SOLVER       

       ELAPSED USER TIME (SEC)      =   0.0000    
       ELAPSED SYSTEM TIME (SEC)    =   0.0000    
       ELAPSED TOTAL CPU TIME (SEC) =   0.0000    
       ELAPSED WALLCLOCK TIME (SEC) =          0
 

 ***WARNING: THE SYSTEM MATRIX HAS 6 NEGATIVE EIGENVALUES.
             EXPLANATIONS ARE SUGGESTED AFTER THE FIRST OCCURRENCE OF THIS MESSAGE.
  
     ASYNCHRONOUS TRACKING ELEMENT LOOP STARTED
  

                   17 SEVERE DISCONTINUITIES OCCURRED DURING THIS ITERATION.
                    2 POINTS CHANGED FROM OPEN TO CLOSED
                    6 POINTS CHANGED FROM CLOSED TO OPEN
                    9 POINTS CHANGED FROM STICKING TO SLIPPING

               CONVERGENCE CHECKS FOR SEVERE DISCONTINUITY ITERATION     2

   MAX. PENETRATION ERROR 2.97629E-03 AT NODE MERGED-BODY-1.122 OF CONTACT PAIR 
   (ASSEMBLY_SURF-CONTACT,ASSEMBLY_SURF-CONTACT)
   MAX. CONTACT FORCE ERROR -41.3214E-03  AT NODE MERGED-BODY-1.390 OF CONTACT 
   PAIR (ASSEMBLY_SURF-CONTACT,ASSEMBLY_SURF-CONTACT)
          THE ESTIMATED CONTACT FORCE ERROR IS OUTSIDE OF CONVERGENCE TOLERANCES.

 AVERAGE FORCE                      1.998E-03   TIME AVG. FORCE       1.998E-03
 LARGEST RESIDUAL FORCE            -6.224E-02   AT NODE         65   DOF  2
   INSTANCE: MERGED-BODY-1                                                                   
 LARGEST INCREMENT OF DISP.         0.959       AT NODE        376   DOF  1
   INSTANCE: MERGED-BODY-1                                                                   
 LARGEST CORRECTION TO DISP.        0.272       AT NODE         91   DOF  1
   INSTANCE: MERGED-BODY-1                                                                   
          FORCE     EQUILIBRIUM NOT ACHIEVED WITHIN TOLERANCE.

  NUMBER OF EQUATIONS =     1034     NUMBER OF FLOATING PT. OPERATIONS =  1.27E+06

  USING THE DIRECT SOLVER WITH   4 PROCESSORS

     CHECK POINT   START OF SOLVER    

     CHECK POINT  END OF SOLVER       

       ELAPSED USER TIME (SEC)      =   0.0000    
       ELAPSED SYSTEM TIME (SEC)    =   0.0000    
       ELAPSED TOTAL CPU TIME (SEC) =   0.0000    
       ELAPSED WALLCLOCK TIME (SEC) =          0
 

 ***WARNING: THE SYSTEM MATRIX HAS 1 NEGATIVE EIGENVALUES.
             EXPLANATIONS ARE SUGGESTED AFTER THE FIRST OCCURRENCE OF THIS MESSAGE.
  
     ASYNCHRONOUS TRACKING ELEMENT LOOP STARTED
  

                    8 SEVERE DISCONTINUITIES OCCURRED DURING THIS ITERATION.
                    3 POINTS CHANGED FROM OPEN TO CLOSED
                    5 POINTS CHANGED FROM CLOSED TO OPEN

               CONVERGENCE CHECKS FOR SEVERE DISCONTINUITY ITERATION     3

   MAX. PENETRATION ERROR -35.4161E-03  AT NODE MERGED-BODY-1.122 OF CONTACT 
   PAIR (ASSEMBLY_SURF-CONTACT,ASSEMBLY_SURF-CONTACT)
   MAX. CONTACT FORCE ERROR -171.120E-03   AT NODE MERGED-BODY-1.122 OF CONTACT 
   PAIR (ASSEMBLY_SURF-CONTACT,ASSEMBLY_SURF-CONTACT)
          PENETRATION ERROR TOO LARGE COMPARED TO DISPLACEMENT INCREMENT.

 AVERAGE FORCE                      3.948E-03   TIME AVG. FORCE       3.948E-03
 LARGEST RESIDUAL FORCE             0.430       AT NODE        172   DOF  2
   INSTANCE: MERGED-BODY-1                                                                   
 LARGEST INCREMENT OF DISP.         0.811       AT NODE         84   DOF  1
   INSTANCE: MERGED-BODY-1                                                                   
 LARGEST CORRECTION TO DISP.       -0.297       AT NODE        240   DOF  2
   INSTANCE: MERGED-BODY-1                                                                   
          FORCE     EQUILIBRIUM NOT ACHIEVED WITHIN TOLERANCE.

  NUMBER OF EQUATIONS =     1034     NUMBER OF FLOATING PT. OPERATIONS =  1.27E+06

  USING THE DIRECT SOLVER WITH   4 PROCESSORS

     CHECK POINT   START OF SOLVER    

     CHECK POINT  END OF SOLVER       

       ELAPSED USER TIME (SEC)      =  0.10000    
       ELAPSED SYSTEM TIME (SEC)    =   0.0000    
       ELAPSED TOTAL CPU TIME (SEC) =  0.10000    
       ELAPSED WALLCLOCK TIME (SEC) =          0
 

 ***WARNING: THE SYSTEM MATRIX HAS 1 NEGATIVE EIGENVALUES.
             EXPLANATIONS ARE SUGGESTED AFTER THE FIRST OCCURRENCE OF THIS MESSAGE.
  
     ASYNCHRONOUS TRACKING ELEMENT LOOP STARTED
  

                    8 SEVERE DISCONTINUITIES OCCURRED DURING THIS ITERATION.
                    3 POINTS CHANGED FROM OPEN TO CLOSED
                    5 POINTS CHANGED FROM CLOSED TO OPEN

               CONVERGENCE CHECKS FOR SEVERE DISCONTINUITY ITERATION     4

   MAX. PENETRATION ERROR -40.2029E-03  AT NODE MERGED-BODY-1.390 OF CONTACT 
   PAIR (ASSEMBLY_SURF-CONTACT,ASSEMBLY_SURF-CONTACT)
   MAX. CONTACT FORCE ERROR -234.259E-03   AT NODE MERGED-BODY-1.390 OF CONTACT 
   PAIR (ASSEMBLY_SURF-CONTACT,ASSEMBLY_SURF-CONTACT)
          PENETRATION ERROR TOO LARGE COMPARED TO DISPLACEMENT INCREMENT.

 AVERAGE FORCE                      2.611E-03   TIME AVG. FORCE       2.611E-03
 LARGEST RESIDUAL FORCE            -0.186       AT NODE         58   DOF  2
   INSTANCE: MERGED-BODY-1                                                                   
 LARGEST INCREMENT OF DISP.         0.838       AT NODE        376   DOF  1
   INSTANCE: MERGED-BODY-1                                                                   
 LARGEST CORRECTION TO DISP.        0.254       AT NODE        240   DOF  2
   INSTANCE: MERGED-BODY-1                                                                   
          FORCE     EQUILIBRIUM NOT ACHIEVED WITHIN TOLERANCE.

  NUMBER OF EQUATIONS =     1034     NUMBER OF FLOATING PT. OPERATIONS =  1.27E+06

  USING THE DIRECT SOLVER WITH   4 PROCESSORS

     CHECK POINT   START OF SOLVER    

     CHECK POINT  END OF SOLVER       

       ELAPSED USER TIME (SEC)      =  0.10000    
       ELAPSED SYSTEM TIME (SEC)    =   0.0000    
       ELAPSED TOTAL CPU TIME (SEC) =  0.10000    
       ELAPSED WALLCLOCK TIME (SEC) =          0
 

 ***WARNING: THE SYSTEM MATRIX HAS 1 NEGATIVE EIGENVALUES.
             EXPLANATIONS ARE SUGGESTED AFTER THE FIRST OCCURRENCE OF THIS MESSAGE.
  
     ASYNCHRONOUS TRACKING ELEMENT LOOP STARTED
  

                   12 SEVERE DISCONTINUITIES OCCURRED DURING THIS ITERATION.
                    6 POINTS CHANGED FROM OPEN TO CLOSED
                    5 POINTS CHANGED FROM CLOSED TO OPEN
                    1 POINTS CHANGED FROM STICKING TO SLIPPING

               CONVERGENCE CHECKS FOR SEVERE DISCONTINUITY ITERATION     5

   MAX. PENETRATION ERROR 49.2422E-03  AT NODE MERGED-BODY-1.122 OF CONTACT 
   PAIR (ASSEMBLY_SURF-CONTACT,ASSEMBLY_SURF-CONTACT)
   MAX. CONTACT FORCE ERROR 296.775E-03   AT NODE MERGED-BODY-1.122 OF CONTACT 
   PAIR (ASSEMBLY_SURF-CONTACT,ASSEMBLY_SURF-CONTACT)
          PENETRATION ERROR TOO LARGE COMPARED TO DISPLACEMENT INCREMENT.

 AVERAGE FORCE                      1.410E-03   TIME AVG. FORCE       1.410E-03
 LARGEST RESIDUAL FORCE            -1.142E-02   AT NODE         57   DOF  2
   INSTANCE: MERGED-BODY-1                                                                   
 LARGEST INCREMENT OF DISP.         0.851       AT NODE        376   DOF  1
   INSTANCE: MERGED-BODY-1                                                                   
 LARGEST CORRECTION TO DISP.        0.103       AT NODE        231   DOF  1
   INSTANCE: MERGED-BODY-1                                                                   
          FORCE     EQUILIBRIUM NOT ACHIEVED WITHIN TOLERANCE.

  NUMBER OF EQUATIONS =     1034     NUMBER OF FLOATING PT. OPERATIONS =  1.27E+06

  USING THE DIRECT SOLVER WITH   4 PROCESSORS

     CHECK POINT   START OF SOLVER    

     CHECK POINT  END OF SOLVER       

       ELAPSED USER TIME (SEC)      =  0.10000    
       ELAPSED SYSTEM TIME (SEC)    =   0.0000    
       ELAPSED TOTAL CPU TIME (SEC) =  0.10000    
       ELAPSED WALLCLOCK TIME (SEC) =          0
 

 ***WARNING: THE SYSTEM MATRIX HAS 3 NEGATIVE EIGENVALUES.
             EXPLANATIONS ARE SUGGESTED AFTER THE FIRST OCCURRENCE OF THIS MESSAGE.
  
     ASYNCHRONOUS TRACKING ELEMENT LOOP STARTED
  

                    7 SEVERE DISCONTINUITIES OCCURRED DURING THIS ITERATION.
                    1 POINTS CHANGED FROM OPEN TO CLOSED
                    6 POINTS CHANGED FROM CLOSED TO OPEN

               CONVERGENCE CHECKS FOR SEVERE DISCONTINUITY ITERATION     6

   MAX. PENETRATION ERROR 894.439E-06   AT NODE MERGED-BODY-1.386 OF CONTACT 
   PAIR (ASSEMBLY_SURF-CONTACT,ASSEMBLY_SURF-CONTACT)
   MAX. CONTACT FORCE ERROR -9.03019E-03 AT NODE BASE-C.39 OF CONTACT PAIR 
   (ASSEMBLY_BASE-C_TOP-SUF-BASEC,ASSEMBLY_MERGED-BODY-1_SURF-BOT-MER)
          THE ESTIMATED CONTACT FORCE ERROR IS OUTSIDE OF CONVERGENCE TOLERANCES.

 AVERAGE FORCE                      1.808E-03   TIME AVG. FORCE       1.808E-03
 LARGEST RESIDUAL FORCE            -0.195       AT NODE        183   DOF  2
   INSTANCE: MERGED-BODY-1                                                                   
 LARGEST INCREMENT OF DISP.         0.898       AT NODE        376   DOF  1
   INSTANCE: MERGED-BODY-1                                                                   
 LARGEST CORRECTION TO DISP.       -5.087E-02   AT NODE        231   DOF  1
   INSTANCE: MERGED-BODY-1                                                                   
          FORCE     EQUILIBRIUM NOT ACHIEVED WITHIN TOLERANCE.

  NUMBER OF EQUATIONS =     1034     NUMBER OF FLOATING PT. OPERATIONS =  1.24E+06

  USING THE DIRECT SOLVER WITH   4 PROCESSORS

     CHECK POINT   START OF SOLVER    

     CHECK POINT  END OF SOLVER       

       ELAPSED USER TIME (SEC)      =   0.0000    
       ELAPSED SYSTEM TIME (SEC)    =  0.10000    
       ELAPSED TOTAL CPU TIME (SEC) =  0.10000    
       ELAPSED WALLCLOCK TIME (SEC) =          0
  
     ASYNCHRONOUS TRACKING ELEMENT LOOP STARTED
  

                    6 SEVERE DISCONTINUITIES OCCURRED DURING THIS ITERATION.
                    4 POINTS CHANGED FROM OPEN TO CLOSED
                    2 POINTS CHANGED FROM CLOSED TO OPEN

               CONVERGENCE CHECKS FOR SEVERE DISCONTINUITY ITERATION     7

   MAX. PENETRATION ERROR 4.65577E-03 AT NODE MERGED-BODY-1.113 OF CONTACT PAIR 
   (ASSEMBLY_SURF-CONTACT,ASSEMBLY_SURF-CONTACT)
   MAX. CONTACT FORCE ERROR 27.8435E-03  AT NODE MERGED-BODY-1.113 OF CONTACT 
   PAIR (ASSEMBLY_SURF-CONTACT,ASSEMBLY_SURF-CONTACT)
          PENETRATION ERROR TOO LARGE COMPARED TO DISPLACEMENT INCREMENT.

 AVERAGE FORCE                      1.347E-03   TIME AVG. FORCE       1.347E-03
 LARGEST RESIDUAL FORCE             4.541E-03   AT NODE        180   DOF  2
   INSTANCE: MERGED-BODY-1                                                                   
 LARGEST INCREMENT OF DISP.         0.904       AT NODE        376   DOF  1
   INSTANCE: MERGED-BODY-1                                                                   
 LARGEST CORRECTION TO DISP.        0.252       AT NODE        282   DOF  1
   INSTANCE: MERGED-BODY-1                                                                   
          FORCE     EQUILIBRIUM NOT ACHIEVED WITHIN TOLERANCE.

  NUMBER OF EQUATIONS =     1034     NUMBER OF FLOATING PT. OPERATIONS =  1.26E+06

  USING THE DIRECT SOLVER WITH   4 PROCESSORS

     CHECK POINT   START OF SOLVER    

     CHECK POINT  END OF SOLVER       

       ELAPSED USER TIME (SEC)      =  0.10000    
       ELAPSED SYSTEM TIME (SEC)    =   0.0000    
       ELAPSED TOTAL CPU TIME (SEC) =  0.10000    
       ELAPSED WALLCLOCK TIME (SEC) =          0
 

 ***WARNING: THE SYSTEM MATRIX HAS 3 NEGATIVE EIGENVALUES.
             EXPLANATIONS ARE SUGGESTED AFTER THE FIRST OCCURRENCE OF THIS MESSAGE.
  
     ASYNCHRONOUS TRACKING ELEMENT LOOP STARTED
  

                    6 SEVERE DISCONTINUITIES OCCURRED DURING THIS ITERATION.
                    1 POINTS CHANGED FROM OPEN TO CLOSED
                    5 POINTS CHANGED FROM CLOSED TO OPEN

               CONVERGENCE CHECKS FOR SEVERE DISCONTINUITY ITERATION     8

   MAX. PENETRATION ERROR 960.978E-06   AT NODE MERGED-BODY-1.386 OF CONTACT 
   PAIR (ASSEMBLY_SURF-CONTACT,ASSEMBLY_SURF-CONTACT)
   MAX. CONTACT FORCE ERROR -10.6522E-03  AT NODE MERGED-BODY-1.113 OF CONTACT 
   PAIR (ASSEMBLY_SURF-CONTACT,ASSEMBLY_SURF-CONTACT)
          THE ESTIMATED CONTACT FORCE ERROR IS OUTSIDE OF CONVERGENCE TOLERANCES.

 AVERAGE FORCE                      1.357E-03   TIME AVG. FORCE       1.357E-03
 LARGEST RESIDUAL FORCE             7.712E-03   AT NODE        180   DOF  2
   INSTANCE: MERGED-BODY-1                                                                   
 LARGEST INCREMENT OF DISP.         0.912       AT NODE        376   DOF  1
   INSTANCE: MERGED-BODY-1                                                                   
 LARGEST CORRECTION TO DISP.       -9.021E-02   AT NODE        282   DOF  1
   INSTANCE: MERGED-BODY-1                                                                   
          FORCE     EQUILIBRIUM NOT ACHIEVED WITHIN TOLERANCE.

  NUMBER OF EQUATIONS =     1034     NUMBER OF FLOATING PT. OPERATIONS =  1.24E+06

  USING THE DIRECT SOLVER WITH   4 PROCESSORS

     CHECK POINT   START OF SOLVER    

     CHECK POINT  END OF SOLVER       

       ELAPSED USER TIME (SEC)      =   0.0000    
       ELAPSED SYSTEM TIME (SEC)    =   0.0000    
       ELAPSED TOTAL CPU TIME (SEC) =   0.0000    
       ELAPSED WALLCLOCK TIME (SEC) =          0
  
     ASYNCHRONOUS TRACKING ELEMENT LOOP STARTED
  

                    5 SEVERE DISCONTINUITIES OCCURRED DURING THIS ITERATION.
                    4 POINTS CHANGED FROM OPEN TO CLOSED
                    1 POINTS CHANGED FROM CLOSED TO OPEN

               CONVERGENCE CHECKS FOR SEVERE DISCONTINUITY ITERATION     9

   MAX. PENETRATION ERROR 3.37015E-03 AT NODE MERGED-BODY-1.388 OF CONTACT PAIR 
   (ASSEMBLY_SURF-CONTACT,ASSEMBLY_SURF-CONTACT)
   MAX. CONTACT FORCE ERROR 20.0183E-03  AT NODE MERGED-BODY-1.388 OF CONTACT 
   PAIR (ASSEMBLY_SURF-CONTACT,ASSEMBLY_SURF-CONTACT)
          THE ESTIMATED CONTACT FORCE ERROR IS OUTSIDE OF CONVERGENCE TOLERANCES.

 AVERAGE FORCE                      1.371E-03   TIME AVG. FORCE       1.371E-03
 LARGEST RESIDUAL FORCE             9.035E-03   AT NODE        180   DOF  2
   INSTANCE: MERGED-BODY-1                                                                   
 LARGEST INCREMENT OF DISP.         0.917       AT NODE        376   DOF  1
   INSTANCE: MERGED-BODY-1                                                                   
 LARGEST CORRECTION TO DISP.        5.184E-02   AT NODE         37   DOF  1
   INSTANCE: MERGED-BODY-1                                                                   
          FORCE     EQUILIBRIUM NOT ACHIEVED WITHIN TOLERANCE.

  NUMBER OF EQUATIONS =     1034     NUMBER OF FLOATING PT. OPERATIONS =  1.26E+06

  USING THE DIRECT SOLVER WITH   4 PROCESSORS

     CHECK POINT   START OF SOLVER    

     CHECK POINT  END OF SOLVER       

       ELAPSED USER TIME (SEC)      =   0.0000    
       ELAPSED SYSTEM TIME (SEC)    =   0.0000    
       ELAPSED TOTAL CPU TIME (SEC) =   0.0000    
       ELAPSED WALLCLOCK TIME (SEC) =          0
 

 ***WARNING: THE SYSTEM MATRIX HAS 3 NEGATIVE EIGENVALUES.
             EXPLANATIONS ARE SUGGESTED AFTER THE FIRST OCCURRENCE OF THIS MESSAGE.
  
     ASYNCHRONOUS TRACKING ELEMENT LOOP STARTED
  

                    5 SEVERE DISCONTINUITIES OCCURRED DURING THIS ITERATION.
                    1 POINTS CHANGED FROM OPEN TO CLOSED
                    4 POINTS CHANGED FROM CLOSED TO OPEN

               CONVERGENCE CHECKS FOR SEVERE DISCONTINUITY ITERATION    10

   MAX. PENETRATION ERROR 932.577E-06   AT NODE MERGED-BODY-1.386 OF CONTACT 
   PAIR (ASSEMBLY_SURF-CONTACT,ASSEMBLY_SURF-CONTACT)
   MAX. CONTACT FORCE ERROR -8.94461E-03 AT NODE MERGED-BODY-1.113 OF CONTACT 
   PAIR (ASSEMBLY_SURF-CONTACT,ASSEMBLY_SURF-CONTACT)
          THE ESTIMATED CONTACT FORCE ERROR IS OUTSIDE OF CONVERGENCE TOLERANCES.

 AVERAGE FORCE                      1.358E-03   TIME AVG. FORCE       1.358E-03
 LARGEST RESIDUAL FORCE            -6.130E-03   AT NODE        114   DOF  1
   INSTANCE: MERGED-BODY-1                                                                   
 LARGEST INCREMENT OF DISP.         0.919       AT NODE        376   DOF  1
   INSTANCE: MERGED-BODY-1                                                                   
 LARGEST CORRECTION TO DISP.       -5.836E-02   AT NODE         37   DOF  1
   INSTANCE: MERGED-BODY-1                                                                   
          FORCE     EQUILIBRIUM NOT ACHIEVED WITHIN TOLERANCE.

  NUMBER OF EQUATIONS =     1034     NUMBER OF FLOATING PT. OPERATIONS =  1.24E+06

  USING THE DIRECT SOLVER WITH   4 PROCESSORS

     CHECK POINT   START OF SOLVER    

     CHECK POINT  END OF SOLVER       

       ELAPSED USER TIME (SEC)      =  0.10000    
       ELAPSED SYSTEM TIME (SEC)    =   0.0000    
       ELAPSED TOTAL CPU TIME (SEC) =  0.10000    
       ELAPSED WALLCLOCK TIME (SEC) =          0
  
     ASYNCHRONOUS TRACKING ELEMENT LOOP STARTED
  

                    5 SEVERE DISCONTINUITIES OCCURRED DURING THIS ITERATION.
                    4 POINTS CHANGED FROM OPEN TO CLOSED
                    1 POINTS CHANGED FROM CLOSED TO OPEN

               CONVERGENCE CHECKS FOR SEVERE DISCONTINUITY ITERATION    11

   MAX. PENETRATION ERROR 3.44506E-03 AT NODE MERGED-BODY-1.388 OF CONTACT PAIR 
   (ASSEMBLY_SURF-CONTACT,ASSEMBLY_SURF-CONTACT)
   MAX. CONTACT FORCE ERROR 20.4641E-03  AT NODE MERGED-BODY-1.388 OF CONTACT 
   PAIR (ASSEMBLY_SURF-CONTACT,ASSEMBLY_SURF-CONTACT)
          THE ESTIMATED CONTACT FORCE ERROR IS OUTSIDE OF CONVERGENCE TOLERANCES.

 AVERAGE FORCE                      1.354E-03   TIME AVG. FORCE       1.354E-03
 LARGEST RESIDUAL FORCE            -1.593E-03   AT NODE         64   DOF  2
   INSTANCE: MERGED-BODY-1                                                                   
 LARGEST INCREMENT OF DISP.         0.917       AT NODE        376   DOF  1
   INSTANCE: MERGED-BODY-1                                                                   
 LARGEST CORRECTION TO DISP.        6.171E-02   AT NODE         37   DOF  1
   INSTANCE: MERGED-BODY-1                                                                   
          FORCE     EQUILIBRIUM NOT ACHIEVED WITHIN TOLERANCE.
 

 ***NOTE: THE SOLUTION APPEARS TO BE DIVERGING. CONVERGENCE IS JUDGED UNLIKELY.


  INCREMENT     1 STARTS. ATTEMPT NUMBER  3, TIME INCREMENT  6.250E-02
  
     ASYNCHRONOUS TRACKING ELEMENT LOOP STARTED
  
 
     INITIAL ELEMENT LOAD BALANCE
        COMPUTE NODE   1   PROCESS    NUMBER OF ELEMENTS
                              1            74
                              2            74
                              3            74
                              4            74

  NUMBER OF EQUATIONS =     1034     NUMBER OF FLOATING PT. OPERATIONS =  1.06E+06

  USING THE DIRECT SOLVER WITH   4 PROCESSORS

     CHECK POINT   START OF SOLVER    

     CHECK POINT  END OF SOLVER       

       ELAPSED USER TIME (SEC)      =   0.0000    
       ELAPSED SYSTEM TIME (SEC)    =   0.0000    
       ELAPSED TOTAL CPU TIME (SEC) =   0.0000    
       ELAPSED WALLCLOCK TIME (SEC) =          0
  
     ASYNCHRONOUS TRACKING ELEMENT LOOP STARTED
  

                    6 SEVERE DISCONTINUITIES OCCURRED DURING THIS ITERATION.
                    1 POINTS CHANGED FROM OPEN TO CLOSED
                    5 POINTS CHANGED FROM CLOSED TO OPEN

               CONVERGENCE CHECKS FOR SEVERE DISCONTINUITY ITERATION     1

   MAX. PENETRATION ERROR 130.768E-09   AT NODE BASE-C.47 OF CONTACT PAIR 
   (ASSEMBLY_BASE-C_TOP-SUF-BASEC,ASSEMBLY_MERGED-BODY-1_SURF-BOT-MER)
   MAX. CONTACT FORCE ERROR -3.15148E-03 AT NODE BASE-C.12 OF CONTACT PAIR 
   (ASSEMBLY_BASE-C_TOP-SUF-BASEC,ASSEMBLY_MERGED-BODY-1_SURF-BOT-MER)
          THE ESTIMATED CONTACT FORCE ERROR IS OUTSIDE OF CONVERGENCE TOLERANCES.

 AVERAGE FORCE                      8.327E-04   TIME AVG. FORCE       8.327E-04
 LARGEST RESIDUAL FORCE            -9.135E-02   AT NODE        183   DOF  2
   INSTANCE: MERGED-BODY-1                                                                   
 LARGEST INCREMENT OF DISP.         0.258       AT NODE        376   DOF  1
   INSTANCE: MERGED-BODY-1                                                                   
 LARGEST CORRECTION TO DISP.        0.258       AT NODE        376   DOF  1
   INSTANCE: MERGED-BODY-1                                                                   
          FORCE     EQUILIBRIUM NOT ACHIEVED WITHIN TOLERANCE.

  NUMBER OF EQUATIONS =     1034     NUMBER OF FLOATING PT. OPERATIONS =  1.02E+06

  USING THE DIRECT SOLVER WITH   4 PROCESSORS

     CHECK POINT   START OF SOLVER    

     CHECK POINT  END OF SOLVER       

       ELAPSED USER TIME (SEC)      =   0.0000    
       ELAPSED SYSTEM TIME (SEC)    =   0.0000    
       ELAPSED TOTAL CPU TIME (SEC) =   0.0000    
       ELAPSED WALLCLOCK TIME (SEC) =          0
  
     ASYNCHRONOUS TRACKING ELEMENT LOOP STARTED
  

                    4 SEVERE DISCONTINUITIES OCCURRED DURING THIS ITERATION.
                    3 POINTS CHANGED FROM OPEN TO CLOSED
                    1 POINTS CHANGED FROM CLOSED TO OPEN

               CONVERGENCE CHECKS FOR SEVERE DISCONTINUITY ITERATION     2

   MAX. PENETRATION ERROR 254.053E-06   AT NODE BASE-C.14 OF CONTACT PAIR 
   (ASSEMBLY_BASE-C_TOP-SUF-BASEC,ASSEMBLY_MERGED-BODY-1_SURF-BOT-MER)
   MAX. CONTACT FORCE ERROR -3.16092E-03 AT NODE BASE-C.13 OF CONTACT PAIR 
   (ASSEMBLY_BASE-C_TOP-SUF-BASEC,ASSEMBLY_MERGED-BODY-1_SURF-BOT-MER)
          THE ESTIMATED CONTACT FORCE ERROR IS OUTSIDE OF CONVERGENCE TOLERANCES.

 AVERAGE FORCE                      4.135E-04   TIME AVG. FORCE       4.135E-04
 LARGEST RESIDUAL FORCE            -2.109E-03   AT NODE         13   DOF  2
   INSTANCE: BASE-C                                                                          
 LARGEST INCREMENT OF DISP.         0.243       AT NODE        376   DOF  1
   INSTANCE: MERGED-BODY-1                                                                   
 LARGEST CORRECTION TO DISP.        2.595E-02   AT NODE        352   DOF  1
   INSTANCE: MERGED-BODY-1                                                                   
          FORCE     EQUILIBRIUM NOT ACHIEVED WITHIN TOLERANCE.

  NUMBER OF EQUATIONS =     1034     NUMBER OF FLOATING PT. OPERATIONS =  1.02E+06

  USING THE DIRECT SOLVER WITH   4 PROCESSORS

     CHECK POINT   START OF SOLVER    

     CHECK POINT  END OF SOLVER       

       ELAPSED USER TIME (SEC)      =  0.10000    
       ELAPSED SYSTEM TIME (SEC)    =   0.0000    
       ELAPSED TOTAL CPU TIME (SEC) =  0.10000    
       ELAPSED WALLCLOCK TIME (SEC) =          0
  
     ASYNCHRONOUS TRACKING ELEMENT LOOP STARTED
  

                    9 SEVERE DISCONTINUITIES OCCURRED DURING THIS ITERATION.
                    2 POINTS CHANGED FROM CLOSED TO OPEN
                    7 POINTS CHANGED FROM STICKING TO SLIPPING

               CONVERGENCE CHECKS FOR SEVERE DISCONTINUITY ITERATION     3

   MAX. PENETRATION ERROR -1.65383E-06 AT NODE BASE-C.14 OF CONTACT PAIR 
   (ASSEMBLY_BASE-C_TOP-SUF-BASEC,ASSEMBLY_MERGED-BODY-1_SURF-BOT-MER)
   MAX. CONTACT FORCE ERROR -5.02479E-03 AT NODE BASE-C.31 OF CONTACT PAIR 
   (ASSEMBLY_BASE-C_TOP-SUF-BASEC,ASSEMBLY_MERGED-BODY-1_SURF-BOT-MER)
          THE ESTIMATED CONTACT FORCE ERROR IS OUTSIDE OF CONVERGENCE TOLERANCES.

 AVERAGE FORCE                      4.070E-04   TIME AVG. FORCE       4.070E-04
 LARGEST RESIDUAL FORCE             3.483E-03   AT NODE         76   DOF  2
   INSTANCE: MERGED-BODY-1                                                                   
 LARGEST INCREMENT OF DISP.         0.244       AT NODE        376   DOF  1
   INSTANCE: MERGED-BODY-1                                                                   
 LARGEST CORRECTION TO DISP.        6.350E-03   AT NODE        282   DOF  1
   INSTANCE: MERGED-BODY-1                                                                   
          FORCE     EQUILIBRIUM NOT ACHIEVED WITHIN TOLERANCE.

  NUMBER OF EQUATIONS =     1034     NUMBER OF FLOATING PT. OPERATIONS =  1.02E+06

  USING THE DIRECT SOLVER WITH   4 PROCESSORS

     CHECK POINT   START OF SOLVER    

     CHECK POINT  END OF SOLVER       

       ELAPSED USER TIME (SEC)      =  0.10000    
       ELAPSED SYSTEM TIME (SEC)    =   0.0000    
       ELAPSED TOTAL CPU TIME (SEC) =  0.10000    
       ELAPSED WALLCLOCK TIME (SEC) =          0
  
     ASYNCHRONOUS TRACKING ELEMENT LOOP STARTED
  

                    3 SEVERE DISCONTINUITIES OCCURRED DURING THIS ITERATION.
                    1 POINTS CHANGED FROM OPEN TO CLOSED
                    1 POINTS CHANGED FROM CLOSED TO OPEN
                    1 POINTS CHANGED FROM STICKING TO SLIPPING

               CONVERGENCE CHECKS FOR SEVERE DISCONTINUITY ITERATION     4

   MAX. PENETRATION ERROR 9.94748E-06 AT NODE BASE-C.39 OF CONTACT PAIR 
   (ASSEMBLY_BASE-C_TOP-SUF-BASEC,ASSEMBLY_MERGED-BODY-1_SURF-BOT-MER)
   MAX. CONTACT FORCE ERROR -2.88919E-03 AT NODE BASE-C.14 OF CONTACT PAIR 
   (ASSEMBLY_BASE-C_TOP-SUF-BASEC,ASSEMBLY_MERGED-BODY-1_SURF-BOT-MER)
          THE ESTIMATED CONTACT FORCE ERROR IS OUTSIDE OF CONVERGENCE TOLERANCES.

 AVERAGE FORCE                      3.996E-04   TIME AVG. FORCE       3.996E-04
 LARGEST RESIDUAL FORCE            -8.769E-03   AT NODE         57   DOF  2
   INSTANCE: MERGED-BODY-1                                                                   
 LARGEST INCREMENT OF DISP.         0.258       AT NODE        376   DOF  1
   INSTANCE: MERGED-BODY-1                                                                   
 LARGEST CORRECTION TO DISP.        1.404E-02   AT NODE        369   DOF  1
   INSTANCE: MERGED-BODY-1                                                                   
          FORCE     EQUILIBRIUM NOT ACHIEVED WITHIN TOLERANCE.

  NUMBER OF EQUATIONS =     1034     NUMBER OF FLOATING PT. OPERATIONS =  1.02E+06

  USING THE DIRECT SOLVER WITH   4 PROCESSORS

     CHECK POINT   START OF SOLVER    

     CHECK POINT  END OF SOLVER       

       ELAPSED USER TIME (SEC)      =  0.20000    
       ELAPSED SYSTEM TIME (SEC)    =   0.0000    
       ELAPSED TOTAL CPU TIME (SEC) =  0.20000    
       ELAPSED WALLCLOCK TIME (SEC) =          0
  
     ASYNCHRONOUS TRACKING ELEMENT LOOP STARTED
  

                    2 SEVERE DISCONTINUITIES OCCURRED DURING THIS ITERATION.
                    2 POINTS CHANGED FROM CLOSED TO OPEN

               CONVERGENCE CHECKS FOR SEVERE DISCONTINUITY ITERATION     5

   MAX. PENETRATION ERROR 73.0909E-09  AT NODE BASE-C.39 OF CONTACT PAIR 
   (ASSEMBLY_BASE-C_TOP-SUF-BASEC,ASSEMBLY_MERGED-BODY-1_SURF-BOT-MER)
   MAX. CONTACT FORCE ERROR -2.91820E-03 AT NODE BASE-C.35 OF CONTACT PAIR 
   (ASSEMBLY_BASE-C_TOP-SUF-BASEC,ASSEMBLY_MERGED-BODY-1_SURF-BOT-MER)
          THE ESTIMATED CONTACT FORCE ERROR IS OUTSIDE OF CONVERGENCE TOLERANCES.

 AVERAGE FORCE                      3.808E-04   TIME AVG. FORCE       3.808E-04
 LARGEST RESIDUAL FORCE             2.140E-03   AT NODE         76   DOF  2
   INSTANCE: MERGED-BODY-1                                                                   
 LARGEST INCREMENT OF DISP.         0.261       AT NODE        376   DOF  1
   INSTANCE: MERGED-BODY-1                                                                   
 LARGEST CORRECTION TO DISP.        2.734E-03   AT NODE        369   DOF  1
   INSTANCE: MERGED-BODY-1                                                                   
          FORCE     EQUILIBRIUM NOT ACHIEVED WITHIN TOLERANCE.

  NUMBER OF EQUATIONS =     1034     NUMBER OF FLOATING PT. OPERATIONS =  1.01E+06

  USING THE DIRECT SOLVER WITH   4 PROCESSORS

     CHECK POINT   START OF SOLVER    

     CHECK POINT  END OF SOLVER       

       ELAPSED USER TIME (SEC)      =  0.10000    
       ELAPSED SYSTEM TIME (SEC)    =   0.0000    
       ELAPSED TOTAL CPU TIME (SEC) =  0.10000    
       ELAPSED WALLCLOCK TIME (SEC) =          0
  
     ASYNCHRONOUS TRACKING ELEMENT LOOP STARTED
  

                    5 SEVERE DISCONTINUITIES OCCURRED DURING THIS ITERATION.
                    1 POINTS CHANGED FROM CLOSED TO OPEN
                    4 POINTS CHANGED FROM SLIPPING TO STICKING

               CONVERGENCE CHECKS FOR SEVERE DISCONTINUITY ITERATION     6

   MAX. PENETRATION ERROR -118.416E-09   AT NODE BASE-C.16 OF CONTACT PAIR 
   (ASSEMBLY_BASE-C_TOP-SUF-BASEC,ASSEMBLY_MERGED-BODY-1_SURF-BOT-MER)
   MAX. CONTACT FORCE ERROR -2.89448E-03 AT NODE BASE-C.39 OF CONTACT PAIR 
   (ASSEMBLY_BASE-C_TOP-SUF-BASEC,ASSEMBLY_MERGED-BODY-1_SURF-BOT-MER)
          THE ESTIMATED CONTACT FORCE ERROR IS OUTSIDE OF CONVERGENCE TOLERANCES.

 AVERAGE FORCE                      4.295E-04   TIME AVG. FORCE       4.295E-04
 LARGEST RESIDUAL FORCE            -2.641E-02   AT NODE        183   DOF  2
   INSTANCE: MERGED-BODY-1                                                                   
 LARGEST INCREMENT OF DISP.         0.281       AT NODE        376   DOF  1
   INSTANCE: MERGED-BODY-1                                                                   
 LARGEST CORRECTION TO DISP.        2.016E-02   AT NODE        369   DOF  1
   INSTANCE: MERGED-BODY-1                                                                   
          FORCE     EQUILIBRIUM NOT ACHIEVED WITHIN TOLERANCE.
 

 ***NOTE: THE SOLUTION APPEARS TO BE DIVERGING. CONVERGENCE IS JUDGED UNLIKELY.


  INCREMENT     1 STARTS. ATTEMPT NUMBER  4, TIME INCREMENT  1.562E-02
  
     ASYNCHRONOUS TRACKING ELEMENT LOOP STARTED
  
 
     INITIAL ELEMENT LOAD BALANCE
        COMPUTE NODE   1   PROCESS    NUMBER OF ELEMENTS
                              1            74
                              2            74
                              3            74
                              4            74

  NUMBER OF EQUATIONS =     1034     NUMBER OF FLOATING PT. OPERATIONS =  1.06E+06

  USING THE DIRECT SOLVER WITH   4 PROCESSORS

     CHECK POINT   START OF SOLVER    

     CHECK POINT  END OF SOLVER       

       ELAPSED USER TIME (SEC)      =  0.20000    
       ELAPSED SYSTEM TIME (SEC)    =  0.10000    
       ELAPSED TOTAL CPU TIME (SEC) =  0.30000    
       ELAPSED WALLCLOCK TIME (SEC) =          0
  
     ASYNCHRONOUS TRACKING ELEMENT LOOP STARTED
  

                    6 SEVERE DISCONTINUITIES OCCURRED DURING THIS ITERATION.
                    1 POINTS CHANGED FROM OPEN TO CLOSED
                    5 POINTS CHANGED FROM CLOSED TO OPEN

               CONVERGENCE CHECKS FOR SEVERE DISCONTINUITY ITERATION     1

   MAX. PENETRATION ERROR 7.27409E-09 AT NODE BASE-C.47 OF CONTACT PAIR 
   (ASSEMBLY_BASE-C_TOP-SUF-BASEC,ASSEMBLY_MERGED-BODY-1_SURF-BOT-MER)
   MAX. CONTACT FORCE ERROR -753.088E-06   AT NODE BASE-C.12 OF CONTACT PAIR 
   (ASSEMBLY_BASE-C_TOP-SUF-BASEC,ASSEMBLY_MERGED-BODY-1_SURF-BOT-MER)
          THE ESTIMATED CONTACT FORCE ERROR IS OUTSIDE OF CONVERGENCE TOLERANCES.

 AVERAGE FORCE                      1.289E-04   TIME AVG. FORCE       1.289E-04
 LARGEST RESIDUAL FORCE            -5.546E-03   AT NODE        183   DOF  2
   INSTANCE: MERGED-BODY-1                                                                   
 LARGEST INCREMENT OF DISP.         6.420E-02   AT NODE        376   DOF  1
   INSTANCE: MERGED-BODY-1                                                                   
 LARGEST CORRECTION TO DISP.        6.420E-02   AT NODE        376   DOF  1
   INSTANCE: MERGED-BODY-1                                                                   
          FORCE     EQUILIBRIUM NOT ACHIEVED WITHIN TOLERANCE.

  NUMBER OF EQUATIONS =     1034     NUMBER OF FLOATING PT. OPERATIONS =  1.02E+06

  USING THE DIRECT SOLVER WITH   4 PROCESSORS

     CHECK POINT   START OF SOLVER    

     CHECK POINT  END OF SOLVER       

       ELAPSED USER TIME (SEC)      =  0.20000    
       ELAPSED SYSTEM TIME (SEC)    =   0.0000    
       ELAPSED TOTAL CPU TIME (SEC) =  0.20000    
       ELAPSED WALLCLOCK TIME (SEC) =          0
  
     ASYNCHRONOUS TRACKING ELEMENT LOOP STARTED
  

                    4 SEVERE DISCONTINUITIES OCCURRED DURING THIS ITERATION.
                    3 POINTS CHANGED FROM OPEN TO CLOSED
                    1 POINTS CHANGED FROM CLOSED TO OPEN

               CONVERGENCE CHECKS FOR SEVERE DISCONTINUITY ITERATION     2

   MAX. PENETRATION ERROR 68.5362E-06  AT NODE BASE-C.14 OF CONTACT PAIR 
   (ASSEMBLY_BASE-C_TOP-SUF-BASEC,ASSEMBLY_MERGED-BODY-1_SURF-BOT-MER)
   MAX. CONTACT FORCE ERROR -773.286E-06   AT NODE BASE-C.13 OF CONTACT PAIR 
   (ASSEMBLY_BASE-C_TOP-SUF-BASEC,ASSEMBLY_MERGED-BODY-1_SURF-BOT-MER)
          THE ESTIMATED CONTACT FORCE ERROR IS OUTSIDE OF CONVERGENCE TOLERANCES.

 AVERAGE FORCE                      1.038E-04   TIME AVG. FORCE       1.038E-04
 LARGEST RESIDUAL FORCE            -5.161E-04   AT NODE         13   DOF  2
   INSTANCE: BASE-C                                                                          
 LARGEST INCREMENT OF DISP.         6.461E-02   AT NODE        376   DOF  1
   INSTANCE: MERGED-BODY-1                                                                   
 LARGEST CORRECTION TO DISP.        3.496E-03   AT NODE        352   DOF  1
   INSTANCE: MERGED-BODY-1                                                                   
          FORCE     EQUILIBRIUM NOT ACHIEVED WITHIN TOLERANCE.

  NUMBER OF EQUATIONS =     1034     NUMBER OF FLOATING PT. OPERATIONS =  1.02E+06

  USING THE DIRECT SOLVER WITH   4 PROCESSORS

     CHECK POINT   START OF SOLVER    

     CHECK POINT  END OF SOLVER       

       ELAPSED USER TIME (SEC)      =  0.10000    
       ELAPSED SYSTEM TIME (SEC)    =   0.0000    
       ELAPSED TOTAL CPU TIME (SEC) =  0.10000    
       ELAPSED WALLCLOCK TIME (SEC) =          0
  
     ASYNCHRONOUS TRACKING ELEMENT LOOP STARTED
  

                    2 SEVERE DISCONTINUITIES OCCURRED DURING THIS ITERATION.
                    2 POINTS CHANGED FROM CLOSED TO OPEN

               CONVERGENCE CHECKS FOR SEVERE DISCONTINUITY ITERATION     3

   MAX. PENETRATION ERROR -54.3925E-09  AT NODE BASE-C.14 OF CONTACT PAIR 
   (ASSEMBLY_BASE-C_TOP-SUF-BASEC,ASSEMBLY_MERGED-BODY-1_SURF-BOT-MER)
   MAX. CONTACT FORCE ERROR -1.29593E-03 AT NODE BASE-C.31 OF CONTACT PAIR 
   (ASSEMBLY_BASE-C_TOP-SUF-BASEC,ASSEMBLY_MERGED-BODY-1_SURF-BOT-MER)
          THE ESTIMATED CONTACT FORCE ERROR IS OUTSIDE OF CONVERGENCE TOLERANCES.

 AVERAGE FORCE                      1.023E-04   TIME AVG. FORCE       1.023E-04
 LARGEST RESIDUAL FORCE             8.995E-04   AT NODE         76   DOF  2
   INSTANCE: MERGED-BODY-1                                                                   
 LARGEST INCREMENT OF DISP.         6.563E-02   AT NODE        376   DOF  1
   INSTANCE: MERGED-BODY-1                                                                   
 LARGEST CORRECTION TO DISP.        1.018E-03   AT NODE         29   DOF  1
   INSTANCE: MERGED-BODY-1                                                                   
          FORCE     EQUILIBRIUM NOT ACHIEVED WITHIN TOLERANCE.

  NUMBER OF EQUATIONS =     1034     NUMBER OF FLOATING PT. OPERATIONS =  1.02E+06

  USING THE DIRECT SOLVER WITH   4 PROCESSORS

     CHECK POINT   START OF SOLVER    

     CHECK POINT  END OF SOLVER       

       ELAPSED USER TIME (SEC)      =  0.10000    
       ELAPSED SYSTEM TIME (SEC)    =   0.0000    
       ELAPSED TOTAL CPU TIME (SEC) =  0.10000    
       ELAPSED WALLCLOCK TIME (SEC) =          0
  
     ASYNCHRONOUS TRACKING ELEMENT LOOP STARTED
  

                    2 SEVERE DISCONTINUITIES OCCURRED DURING THIS ITERATION.
                    1 POINTS CHANGED FROM OPEN TO CLOSED
                    1 POINTS CHANGED FROM CLOSED TO OPEN

               CONVERGENCE CHECKS FOR SEVERE DISCONTINUITY ITERATION     4

   MAX. PENETRATION ERROR 4.38921E-06 AT NODE BASE-C.39 OF CONTACT PAIR 
   (ASSEMBLY_BASE-C_TOP-SUF-BASEC,ASSEMBLY_MERGED-BODY-1_SURF-BOT-MER)
   MAX. CONTACT FORCE ERROR -752.789E-06   AT NODE BASE-C.14 OF CONTACT PAIR 
   (ASSEMBLY_BASE-C_TOP-SUF-BASEC,ASSEMBLY_MERGED-BODY-1_SURF-BOT-MER)
          THE ESTIMATED CONTACT FORCE ERROR IS OUTSIDE OF CONVERGENCE TOLERANCES.

 AVERAGE FORCE                      9.783E-05   TIME AVG. FORCE       9.783E-05
 LARGEST RESIDUAL FORCE            -6.897E-04   AT NODE         57   DOF  2
   INSTANCE: MERGED-BODY-1                                                                   
 LARGEST INCREMENT OF DISP.         6.943E-02   AT NODE        376   DOF  1
   INSTANCE: MERGED-BODY-1                                                                   
 LARGEST CORRECTION TO DISP.        3.846E-03   AT NODE         29   DOF  1
   INSTANCE: MERGED-BODY-1                                                                   
          FORCE     EQUILIBRIUM NOT ACHIEVED WITHIN TOLERANCE.

  NUMBER OF EQUATIONS =     1034     NUMBER OF FLOATING PT. OPERATIONS =  1.02E+06

  USING THE DIRECT SOLVER WITH   4 PROCESSORS

     CHECK POINT   START OF SOLVER    

     CHECK POINT  END OF SOLVER       

       ELAPSED USER TIME (SEC)      =  0.10000    
       ELAPSED SYSTEM TIME (SEC)    =   0.0000    
       ELAPSED TOTAL CPU TIME (SEC) =  0.10000    
       ELAPSED WALLCLOCK TIME (SEC) =          0
  
     ASYNCHRONOUS TRACKING ELEMENT LOOP STARTED
  

                    2 SEVERE DISCONTINUITIES OCCURRED DURING THIS ITERATION.
                    2 POINTS CHANGED FROM CLOSED TO OPEN

               CONVERGENCE CHECKS FOR SEVERE DISCONTINUITY ITERATION     5

   MAX. PENETRATION ERROR 8.46963E-09 AT NODE BASE-C.39 OF CONTACT PAIR 
   (ASSEMBLY_BASE-C_TOP-SUF-BASEC,ASSEMBLY_MERGED-BODY-1_SURF-BOT-MER)
   MAX. CONTACT FORCE ERROR -770.449E-06   AT NODE BASE-C.35 OF CONTACT PAIR 
   (ASSEMBLY_BASE-C_TOP-SUF-BASEC,ASSEMBLY_MERGED-BODY-1_SURF-BOT-MER)
          THE ESTIMATED CONTACT FORCE ERROR IS OUTSIDE OF CONVERGENCE TOLERANCES.

 AVERAGE FORCE                      9.670E-05   TIME AVG. FORCE       9.670E-05
 LARGEST RESIDUAL FORCE             5.576E-04   AT NODE         76   DOF  2
   INSTANCE: MERGED-BODY-1                                                                   
 LARGEST INCREMENT OF DISP.         7.021E-02   AT NODE        376   DOF  1
   INSTANCE: MERGED-BODY-1                                                                   
 LARGEST CORRECTION TO DISP.        7.989E-04   AT NODE         29   DOF  1
   INSTANCE: MERGED-BODY-1                                                                   
          FORCE     EQUILIBRIUM NOT ACHIEVED WITHIN TOLERANCE.

  NUMBER OF EQUATIONS =     1034     NUMBER OF FLOATING PT. OPERATIONS =  1.01E+06

  USING THE DIRECT SOLVER WITH   4 PROCESSORS

     CHECK POINT   START OF SOLVER    

     CHECK POINT  END OF SOLVER       

       ELAPSED USER TIME (SEC)      =  0.10000    
       ELAPSED SYSTEM TIME (SEC)    =  0.10000    
       ELAPSED TOTAL CPU TIME (SEC) =  0.20000    
       ELAPSED WALLCLOCK TIME (SEC) =          0
  
     ASYNCHRONOUS TRACKING ELEMENT LOOP STARTED
  

                    1 SEVERE DISCONTINUITIES OCCURRED DURING THIS ITERATION.
                    1 POINTS CHANGED FROM CLOSED TO OPEN

               CONVERGENCE CHECKS FOR SEVERE DISCONTINUITY ITERATION     6

   MAX. PENETRATION ERROR -5.53460E-09 AT NODE BASE-C.16 OF CONTACT PAIR 
   (ASSEMBLY_BASE-C_TOP-SUF-BASEC,ASSEMBLY_MERGED-BODY-1_SURF-BOT-MER)
   MAX. CONTACT FORCE ERROR -719.934E-06   AT NODE BASE-C.39 OF CONTACT PAIR 
   (ASSEMBLY_BASE-C_TOP-SUF-BASEC,ASSEMBLY_MERGED-BODY-1_SURF-BOT-MER)
          THE ESTIMATED CONTACT FORCE ERROR IS OUTSIDE OF CONVERGENCE TOLERANCES.

 AVERAGE FORCE                      9.709E-05   TIME AVG. FORCE       9.709E-05
 LARGEST RESIDUAL FORCE            -1.733E-03   AT NODE        183   DOF  2
   INSTANCE: MERGED-BODY-1                                                                   
 LARGEST INCREMENT OF DISP.         7.579E-02   AT NODE        376   DOF  1
   INSTANCE: MERGED-BODY-1                                                                   
 LARGEST CORRECTION TO DISP.        5.662E-03   AT NODE         29   DOF  1
   INSTANCE: MERGED-BODY-1                                                                   
          FORCE     EQUILIBRIUM NOT ACHIEVED WITHIN TOLERANCE.

  NUMBER OF EQUATIONS =     1034     NUMBER OF FLOATING PT. OPERATIONS =  1.01E+06

  USING THE DIRECT SOLVER WITH   4 PROCESSORS

     CHECK POINT   START OF SOLVER    

     CHECK POINT  END OF SOLVER       

       ELAPSED USER TIME (SEC)      =   0.0000    
       ELAPSED SYSTEM TIME (SEC)    =   0.0000    
       ELAPSED TOTAL CPU TIME (SEC) =   0.0000    
       ELAPSED WALLCLOCK TIME (SEC) =          0
  
     ASYNCHRONOUS TRACKING ELEMENT LOOP STARTED
  

                    1 SEVERE DISCONTINUITIES OCCURRED DURING THIS ITERATION.
                    1 POINTS CHANGED FROM CLOSED TO OPEN

               CONVERGENCE CHECKS FOR SEVERE DISCONTINUITY ITERATION     7

   MAX. PENETRATION ERROR 77.8971E-09  AT NODE BASE-C.43 OF CONTACT PAIR 
   (ASSEMBLY_BASE-C_TOP-SUF-BASEC,ASSEMBLY_MERGED-BODY-1_SURF-BOT-MER)
   MAX. CONTACT FORCE ERROR -582.178E-06   AT NODE BASE-C.16 OF CONTACT PAIR 
   (ASSEMBLY_BASE-C_TOP-SUF-BASEC,ASSEMBLY_MERGED-BODY-1_SURF-BOT-MER)
          THE ESTIMATED CONTACT FORCE ERROR IS OUTSIDE OF CONVERGENCE TOLERANCES.

 AVERAGE FORCE                      9.445E-05   TIME AVG. FORCE       9.445E-05
 LARGEST RESIDUAL FORCE            -3.885E-04   AT NODE         16   DOF  2
   INSTANCE: BASE-C                                                                          
 LARGEST INCREMENT OF DISP.         7.673E-02   AT NODE        376   DOF  1
   INSTANCE: MERGED-BODY-1                                                                   
 LARGEST CORRECTION TO DISP.        9.583E-04   AT NODE         29   DOF  1
   INSTANCE: MERGED-BODY-1                                                                   
          FORCE     EQUILIBRIUM NOT ACHIEVED WITHIN TOLERANCE.

  NUMBER OF EQUATIONS =     1034     NUMBER OF FLOATING PT. OPERATIONS =  1.01E+06

  USING THE DIRECT SOLVER WITH   4 PROCESSORS

     CHECK POINT   START OF SOLVER    

     CHECK POINT  END OF SOLVER       

       ELAPSED USER TIME (SEC)      =   0.0000    
       ELAPSED SYSTEM TIME (SEC)    =   0.0000    
       ELAPSED TOTAL CPU TIME (SEC) =   0.0000    
       ELAPSED WALLCLOCK TIME (SEC) =          0
  
     ASYNCHRONOUS TRACKING ELEMENT LOOP STARTED
  

                    1 SEVERE DISCONTINUITIES OCCURRED DURING THIS ITERATION.
                    1 POINTS CHANGED FROM CLOSED TO OPEN

               CONVERGENCE CHECKS FOR SEVERE DISCONTINUITY ITERATION     8

   MAX. PENETRATION ERROR 6.09566E-09 AT NODE BASE-C.17 OF CONTACT PAIR 
   (ASSEMBLY_BASE-C_TOP-SUF-BASEC,ASSEMBLY_MERGED-BODY-1_SURF-BOT-MER)
   MAX. CONTACT FORCE ERROR -639.759E-06   AT NODE BASE-C.43 OF CONTACT PAIR 
   (ASSEMBLY_BASE-C_TOP-SUF-BASEC,ASSEMBLY_MERGED-BODY-1_SURF-BOT-MER)
          THE ESTIMATED CONTACT FORCE ERROR IS OUTSIDE OF CONVERGENCE TOLERANCES.

 AVERAGE FORCE                      9.501E-05   TIME AVG. FORCE       9.501E-05
 LARGEST RESIDUAL FORCE             4.281E-04   AT NODE          6   DOF  2
   INSTANCE: MERGED-BODY-1                                                                   
 LARGEST INCREMENT OF DISP.         7.774E-02   AT NODE        376   DOF  1
   INSTANCE: MERGED-BODY-1                                                                   
 LARGEST CORRECTION TO DISP.        1.026E-03   AT NODE         29   DOF  1
   INSTANCE: MERGED-BODY-1                                                                   
          FORCE     EQUILIBRIUM NOT ACHIEVED WITHIN TOLERANCE.

  NUMBER OF EQUATIONS =     1034     NUMBER OF FLOATING PT. OPERATIONS =  1.01E+06

  USING THE DIRECT SOLVER WITH   4 PROCESSORS

     CHECK POINT   START OF SOLVER    

     CHECK POINT  END OF SOLVER       

       ELAPSED USER TIME (SEC)      =  0.10000    
       ELAPSED SYSTEM TIME (SEC)    =   0.0000    
       ELAPSED TOTAL CPU TIME (SEC) =  0.10000    
       ELAPSED WALLCLOCK TIME (SEC) =          0
  
     ASYNCHRONOUS TRACKING ELEMENT LOOP STARTED
  

               CONVERGENCE CHECKS FOR EQUILIBRIUM ITERATION     1

   MAX. PENETRATION ERROR 4.53139E-09 AT NODE BASE-C.17 OF CONTACT PAIR 
   (ASSEMBLY_BASE-C_TOP-SUF-BASEC,ASSEMBLY_MERGED-BODY-1_SURF-BOT-MER)
   MAX. CONTACT FORCE ERROR 2.68269E-09 AT NODE BASE-C.17 OF CONTACT PAIR 
   (ASSEMBLY_BASE-C_TOP-SUF-BASEC,ASSEMBLY_MERGED-BODY-1_SURF-BOT-MER)
          THE CONTACT CONSTRAINTS HAVE CONVERGED.

 AVERAGE FORCE                      9.602E-05   TIME AVG. FORCE       9.602E-05
 LARGEST RESIDUAL FORCE             1.017E-04   AT NODE        180   DOF  2
   INSTANCE: MERGED-BODY-1                                                                   
 LARGEST INCREMENT OF DISP.         7.879E-02   AT NODE        376   DOF  1
   INSTANCE: MERGED-BODY-1                                                                   
 LARGEST CORRECTION TO DISP.        1.199E-03   AT NODE        174   DOF  2
   INSTANCE: MERGED-BODY-1                                                                   
          FORCE     EQUILIBRIUM NOT ACHIEVED WITHIN TOLERANCE.

  NUMBER OF EQUATIONS =     1034     NUMBER OF FLOATING PT. OPERATIONS =  1.01E+06

  USING THE DIRECT SOLVER WITH   4 PROCESSORS

     CHECK POINT   START OF SOLVER    

     CHECK POINT  END OF SOLVER       

       ELAPSED USER TIME (SEC)      =  0.10000    
       ELAPSED SYSTEM TIME (SEC)    =   0.0000    
       ELAPSED TOTAL CPU TIME (SEC) =  0.10000    
       ELAPSED WALLCLOCK TIME (SEC) =          0
  
     ASYNCHRONOUS TRACKING ELEMENT LOOP STARTED
  

               CONVERGENCE CHECKS FOR EQUILIBRIUM ITERATION     2

   MAX. PENETRATION ERROR 20.3394E-12  AT NODE BASE-C.17 OF CONTACT PAIR 
   (ASSEMBLY_BASE-C_TOP-SUF-BASEC,ASSEMBLY_MERGED-BODY-1_SURF-BOT-MER)
   MAX. CONTACT FORCE ERROR 12.0414E-12  AT NODE BASE-C.17 OF CONTACT PAIR 
   (ASSEMBLY_BASE-C_TOP-SUF-BASEC,ASSEMBLY_MERGED-BODY-1_SURF-BOT-MER)
          THE CONTACT CONSTRAINTS HAVE CONVERGED.

 AVERAGE FORCE                      9.602E-05   TIME AVG. FORCE       9.602E-05
 LARGEST RESIDUAL FORCE             1.928E-06   AT NODE        182   DOF  1
   INSTANCE: MERGED-BODY-1                                                                   
 LARGEST INCREMENT OF DISP.         7.887E-02   AT NODE        376   DOF  1
   INSTANCE: MERGED-BODY-1                                                                   
 LARGEST CORRECTION TO DISP.       -1.368E-04   AT NODE         34   DOF  1
   INSTANCE: MERGED-BODY-1                                                                   
          FORCE     EQUILIBRIUM NOT ACHIEVED WITHIN TOLERANCE.

  NUMBER OF EQUATIONS =     1034     NUMBER OF FLOATING PT. OPERATIONS =  1.01E+06

  USING THE DIRECT SOLVER WITH   4 PROCESSORS

     CHECK POINT   START OF SOLVER    

     CHECK POINT  END OF SOLVER       

       ELAPSED USER TIME (SEC)      =  0.10000    
       ELAPSED SYSTEM TIME (SEC)    =   0.0000    
       ELAPSED TOTAL CPU TIME (SEC) =  0.10000    
       ELAPSED WALLCLOCK TIME (SEC) =          0
  
     ASYNCHRONOUS TRACKING ELEMENT LOOP STARTED
  

               CONVERGENCE CHECKS FOR EQUILIBRIUM ITERATION     3

   MAX. PENETRATION ERROR 501.959E-18   AT NODE BASE-C.17 OF CONTACT PAIR 
   (ASSEMBLY_BASE-C_TOP-SUF-BASEC,ASSEMBLY_MERGED-BODY-1_SURF-BOT-MER)
   MAX. CONTACT FORCE ERROR 297.171E-18   AT NODE BASE-C.17 OF CONTACT PAIR 
   (ASSEMBLY_BASE-C_TOP-SUF-BASEC,ASSEMBLY_MERGED-BODY-1_SURF-BOT-MER)
          THE CONTACT CONSTRAINTS HAVE CONVERGED.

 AVERAGE FORCE                      9.602E-05   TIME AVG. FORCE       9.602E-05
 LARGEST RESIDUAL FORCE            -4.320E-09   AT NODE        182   DOF  2
   INSTANCE: MERGED-BODY-1                                                                   
 LARGEST INCREMENT OF DISP.         7.887E-02   AT NODE        376   DOF  1
   INSTANCE: MERGED-BODY-1                                                                   
 LARGEST CORRECTION TO DISP.        4.501E-08   AT NODE         34   DOF  1
   INSTANCE: MERGED-BODY-1                                                                   
          THE FORCE     EQUILIBRIUM EQUATIONS HAVE CONVERGED

          BECAUSE OF INCONSISTENT CONVERGENCE
          THE NEXT TIME INCREMENT WILL BE REDUCED TO    1.172E-02

 ITERATION SUMMARY FOR THE INCREMENT:  11 TOTAL ITERATIONS, OF WHICH
   8 ARE SEVERE DISCONTINUITY ITERATIONS AND  3 ARE EQUILIBRIUM ITERATIONS.

 TIME INCREMENT COMPLETED  1.562E-02,  FRACTION OF STEP COMPLETED  1.562E-02
 STEP TIME COMPLETED       1.562E-02,  TOTAL TIME COMPLETED        1.562E-02
  
     ASYNCHRONOUS OUTPUT DATABASE FRAME FLUSH STARTED
  


  INCREMENT     2 STARTS. ATTEMPT NUMBER  1, TIME INCREMENT  1.172E-02
  
     ASYNCHRONOUS TRACKING ELEMENT LOOP STARTED
  

  NUMBER OF EQUATIONS =     1034     NUMBER OF FLOATING PT. OPERATIONS =  1.01E+06

  USING THE DIRECT SOLVER WITH   4 PROCESSORS

     CHECK POINT   START OF SOLVER    

     CHECK POINT  END OF SOLVER       

       ELAPSED USER TIME (SEC)      =  0.10000    
       ELAPSED SYSTEM TIME (SEC)    =  0.10000    
       ELAPSED TOTAL CPU TIME (SEC) =  0.20000    
       ELAPSED WALLCLOCK TIME (SEC) =          0
  
     ASYNCHRONOUS TRACKING ELEMENT LOOP STARTED
  

               CONVERGENCE CHECKS FOR EQUILIBRIUM ITERATION     1

   MAX. PENETRATION ERROR 402.622E-12   AT NODE BASE-C.17 OF CONTACT PAIR 
   (ASSEMBLY_BASE-C_TOP-SUF-BASEC,ASSEMBLY_MERGED-BODY-1_SURF-BOT-MER)
   MAX. CONTACT FORCE ERROR 238.362E-12   AT NODE BASE-C.17 OF CONTACT PAIR 
   (ASSEMBLY_BASE-C_TOP-SUF-BASEC,ASSEMBLY_MERGED-BODY-1_SURF-BOT-MER)
          THE CONTACT CONSTRAINTS HAVE CONVERGED.

 AVERAGE FORCE                      3.418E-04   TIME AVG. FORCE       2.189E-04
 LARGEST RESIDUAL FORCE             5.072E-05   AT NODE        180   DOF  2
   INSTANCE: MERGED-BODY-1                                                                   
 LARGEST INCREMENT OF DISP.         5.614E-02   AT NODE        376   DOF  1
   INSTANCE: MERGED-BODY-1                                                                   
 LARGEST CORRECTION TO DISP.       -3.161E-03   AT NODE         29   DOF  1
   INSTANCE: MERGED-BODY-1                                                                   
          FORCE     EQUILIBRIUM NOT ACHIEVED WITHIN TOLERANCE.

  NUMBER OF EQUATIONS =     1034     NUMBER OF FLOATING PT. OPERATIONS =  1.01E+06

  USING THE DIRECT SOLVER WITH   4 PROCESSORS

     CHECK POINT   START OF SOLVER    

     CHECK POINT  END OF SOLVER       

       ELAPSED USER TIME (SEC)      =  0.10000    
       ELAPSED SYSTEM TIME (SEC)    =   0.0000    
       ELAPSED TOTAL CPU TIME (SEC) =  0.10000    
       ELAPSED WALLCLOCK TIME (SEC) =          0
  
     ASYNCHRONOUS TRACKING ELEMENT LOOP STARTED
  

               CONVERGENCE CHECKS FOR EQUILIBRIUM ITERATION     2

   MAX. PENETRATION ERROR 191.834E-15   AT NODE BASE-C.17 OF CONTACT PAIR 
   (ASSEMBLY_BASE-C_TOP-SUF-BASEC,ASSEMBLY_MERGED-BODY-1_SURF-BOT-MER)
   MAX. CONTACT FORCE ERROR 113.570E-15   AT NODE BASE-C.17 OF CONTACT PAIR 
   (ASSEMBLY_BASE-C_TOP-SUF-BASEC,ASSEMBLY_MERGED-BODY-1_SURF-BOT-MER)
          THE CONTACT CONSTRAINTS HAVE CONVERGED.

 AVERAGE FORCE                      3.493E-04   TIME AVG. FORCE       2.227E-04
 LARGEST RESIDUAL FORCE            -1.571E-07   AT NODE        178   DOF  1
   INSTANCE: MERGED-BODY-1                                                                   
 LARGEST INCREMENT OF DISP.         5.609E-02   AT NODE        376   DOF  1
   INSTANCE: MERGED-BODY-1                                                                   
 LARGEST CORRECTION TO DISP.        6.269E-05   AT NODE         42   DOF  1
   INSTANCE: MERGED-BODY-1                                                                   
          THE FORCE     EQUILIBRIUM EQUATIONS HAVE CONVERGED
 NO INCREASE IN INCREMENT SIZE DUE TO NON-MONOTONIC CONVERGENCE  IN LAST TWO INCREMENTS.

 ITERATION SUMMARY FOR THE INCREMENT:   2 TOTAL ITERATIONS, OF WHICH
   0 ARE SEVERE DISCONTINUITY ITERATIONS AND  2 ARE EQUILIBRIUM ITERATIONS.

 TIME INCREMENT COMPLETED  1.172E-02,  FRACTION OF STEP COMPLETED  2.734E-02
 STEP TIME COMPLETED       2.734E-02,  TOTAL TIME COMPLETED        2.734E-02
  
     ASYNCHRONOUS OUTPUT DATABASE FRAME FLUSH STARTED
  


  INCREMENT     3 STARTS. ATTEMPT NUMBER  1, TIME INCREMENT  1.172E-02
  
     ASYNCHRONOUS TRACKING ELEMENT LOOP STARTED
  

  NUMBER OF EQUATIONS =     1034     NUMBER OF FLOATING PT. OPERATIONS =  1.01E+06

  USING THE DIRECT SOLVER WITH   4 PROCESSORS

     CHECK POINT   START OF SOLVER    

     CHECK POINT  END OF SOLVER       

       ELAPSED USER TIME (SEC)      =  0.10000    
       ELAPSED SYSTEM TIME (SEC)    =   0.0000    
       ELAPSED TOTAL CPU TIME (SEC) =  0.10000    
       ELAPSED WALLCLOCK TIME (SEC) =          0
  
     ASYNCHRONOUS TRACKING ELEMENT LOOP STARTED
  

               CONVERGENCE CHECKS FOR EQUILIBRIUM ITERATION     1

   MAX. PENETRATION ERROR 192.195E-12   AT NODE BASE-C.17 OF CONTACT PAIR 
   (ASSEMBLY_BASE-C_TOP-SUF-BASEC,ASSEMBLY_MERGED-BODY-1_SURF-BOT-MER)
   MAX. CONTACT FORCE ERROR 113.784E-12   AT NODE BASE-C.17 OF CONTACT PAIR 
   (ASSEMBLY_BASE-C_TOP-SUF-BASEC,ASSEMBLY_MERGED-BODY-1_SURF-BOT-MER)
          THE CONTACT CONSTRAINTS HAVE CONVERGED.

 AVERAGE FORCE                      4.916E-04   TIME AVG. FORCE       3.123E-04
 LARGEST RESIDUAL FORCE             2.724E-05   AT NODE        180   DOF  2
   INSTANCE: MERGED-BODY-1                                                                   
 LARGEST INCREMENT OF DISP.         5.380E-02   AT NODE        376   DOF  1
   INSTANCE: MERGED-BODY-1                                                                   
 LARGEST CORRECTION TO DISP.       -2.393E-03   AT NODE         29   DOF  1
   INSTANCE: MERGED-BODY-1                                                                   
          FORCE     EQUILIBRIUM NOT ACHIEVED WITHIN TOLERANCE.

  NUMBER OF EQUATIONS =     1034     NUMBER OF FLOATING PT. OPERATIONS =  1.01E+06

  USING THE DIRECT SOLVER WITH   4 PROCESSORS

     CHECK POINT   START OF SOLVER    

     CHECK POINT  END OF SOLVER       

       ELAPSED USER TIME (SEC)      =   0.0000    
       ELAPSED SYSTEM TIME (SEC)    =   0.0000    
       ELAPSED TOTAL CPU TIME (SEC) =   0.0000    
       ELAPSED WALLCLOCK TIME (SEC) =          1
  
     ASYNCHRONOUS TRACKING ELEMENT LOOP STARTED
  

               CONVERGENCE CHECKS FOR EQUILIBRIUM ITERATION     2

   MAX. PENETRATION ERROR 51.8373E-15  AT NODE BASE-C.17 OF CONTACT PAIR 
   (ASSEMBLY_BASE-C_TOP-SUF-BASEC,ASSEMBLY_MERGED-BODY-1_SURF-BOT-MER)
   MAX. CONTACT FORCE ERROR 30.6889E-15  AT NODE BASE-C.17 OF CONTACT PAIR 
   (ASSEMBLY_BASE-C_TOP-SUF-BASEC,ASSEMBLY_MERGED-BODY-1_SURF-BOT-MER)
          THE CONTACT CONSTRAINTS HAVE CONVERGED.

 AVERAGE FORCE                      4.973E-04   TIME AVG. FORCE       3.142E-04
 LARGEST RESIDUAL FORCE            -8.043E-08   AT NODE        178   DOF  1
   INSTANCE: MERGED-BODY-1                                                                   
 LARGEST INCREMENT OF DISP.         5.377E-02   AT NODE        376   DOF  1
   INSTANCE: MERGED-BODY-1                                                                   
 LARGEST CORRECTION TO DISP.        3.716E-05   AT NODE         42   DOF  1
   INSTANCE: MERGED-BODY-1                                                                   
          THE FORCE     EQUILIBRIUM EQUATIONS HAVE CONVERGED
          TIME INCREMENT MAY NOW INCREASE TO    1.758E-02

 ITERATION SUMMARY FOR THE INCREMENT:   2 TOTAL ITERATIONS, OF WHICH
   0 ARE SEVERE DISCONTINUITY ITERATIONS AND  2 ARE EQUILIBRIUM ITERATIONS.

 TIME INCREMENT COMPLETED  1.172E-02,  FRACTION OF STEP COMPLETED  3.906E-02
 STEP TIME COMPLETED       3.906E-02,  TOTAL TIME COMPLETED        3.906E-02
  
     ASYNCHRONOUS OUTPUT DATABASE FRAME FLUSH STARTED
  


  INCREMENT     4 STARTS. ATTEMPT NUMBER  1, TIME INCREMENT  1.758E-02
  
     ASYNCHRONOUS TRACKING ELEMENT LOOP STARTED
  

  NUMBER OF EQUATIONS =     1034     NUMBER OF FLOATING PT. OPERATIONS =  1.01E+06

  USING THE DIRECT SOLVER WITH   4 PROCESSORS

     CHECK POINT   START OF SOLVER    

     CHECK POINT  END OF SOLVER       

       ELAPSED USER TIME (SEC)      =  0.10000    
       ELAPSED SYSTEM TIME (SEC)    =   0.0000    
       ELAPSED TOTAL CPU TIME (SEC) =  0.10000    
       ELAPSED WALLCLOCK TIME (SEC) =          0
  
     ASYNCHRONOUS TRACKING ELEMENT LOOP STARTED
  

               CONVERGENCE CHECKS FOR EQUILIBRIUM ITERATION     1

   MAX. PENETRATION ERROR 431.279E-12   AT NODE BASE-C.17 OF CONTACT PAIR 
   (ASSEMBLY_BASE-C_TOP-SUF-BASEC,ASSEMBLY_MERGED-BODY-1_SURF-BOT-MER)
   MAX. CONTACT FORCE ERROR 255.327E-12   AT NODE BASE-C.17 OF CONTACT PAIR 
   (ASSEMBLY_BASE-C_TOP-SUF-BASEC,ASSEMBLY_MERGED-BODY-1_SURF-BOT-MER)
          THE CONTACT CONSTRAINTS HAVE CONVERGED.

 AVERAGE FORCE                      6.969E-04   TIME AVG. FORCE       4.099E-04
 LARGEST RESIDUAL FORCE             6.926E-05   AT NODE        180   DOF  2
   INSTANCE: MERGED-BODY-1                                                                   
 LARGEST INCREMENT OF DISP.         7.690E-02   AT NODE        376   DOF  1
   INSTANCE: MERGED-BODY-1                                                                   
 LARGEST CORRECTION TO DISP.       -3.930E-03   AT NODE         29   DOF  1
   INSTANCE: MERGED-BODY-1                                                                   
          FORCE     EQUILIBRIUM NOT ACHIEVED WITHIN TOLERANCE.

  NUMBER OF EQUATIONS =     1034     NUMBER OF FLOATING PT. OPERATIONS =  1.01E+06

  USING THE DIRECT SOLVER WITH   4 PROCESSORS

     CHECK POINT   START OF SOLVER    

     CHECK POINT  END OF SOLVER       

       ELAPSED USER TIME (SEC)      =  0.10000    
       ELAPSED SYSTEM TIME (SEC)    =   0.0000    
       ELAPSED TOTAL CPU TIME (SEC) =  0.10000    
       ELAPSED WALLCLOCK TIME (SEC) =          0
  
     ASYNCHRONOUS TRACKING ELEMENT LOOP STARTED
  

               CONVERGENCE CHECKS FOR EQUILIBRIUM ITERATION     2

   MAX. PENETRATION ERROR 338.830E-15   AT NODE BASE-C.17 OF CONTACT PAIR 
   (ASSEMBLY_BASE-C_TOP-SUF-BASEC,ASSEMBLY_MERGED-BODY-1_SURF-BOT-MER)
   MAX. CONTACT FORCE ERROR 200.595E-15   AT NODE BASE-C.17 OF CONTACT PAIR 
   (ASSEMBLY_BASE-C_TOP-SUF-BASEC,ASSEMBLY_MERGED-BODY-1_SURF-BOT-MER)
          THE CONTACT CONSTRAINTS HAVE CONVERGED.

 AVERAGE FORCE                      7.130E-04   TIME AVG. FORCE       4.139E-04
 LARGEST RESIDUAL FORCE            -2.983E-07   AT NODE        178   DOF  1
   INSTANCE: MERGED-BODY-1                                                                   
 LARGEST INCREMENT OF DISP.         7.683E-02   AT NODE        376   DOF  1
   INSTANCE: MERGED-BODY-1                                                                   
 LARGEST CORRECTION TO DISP.        1.009E-04   AT NODE         42   DOF  1
   INSTANCE: MERGED-BODY-1                                                                   
          THE FORCE     EQUILIBRIUM EQUATIONS HAVE CONVERGED
          TIME INCREMENT MAY NOW INCREASE TO    2.637E-02

 ITERATION SUMMARY FOR THE INCREMENT:   2 TOTAL ITERATIONS, OF WHICH
   0 ARE SEVERE DISCONTINUITY ITERATIONS AND  2 ARE EQUILIBRIUM ITERATIONS.

 TIME INCREMENT COMPLETED  1.758E-02,  FRACTION OF STEP COMPLETED  5.664E-02
 STEP TIME COMPLETED       5.664E-02,  TOTAL TIME COMPLETED        5.664E-02
  
     ASYNCHRONOUS OUTPUT DATABASE FRAME FLUSH STARTED
  


  INCREMENT     5 STARTS. ATTEMPT NUMBER  1, TIME INCREMENT  2.637E-02
  
     ASYNCHRONOUS TRACKING ELEMENT LOOP STARTED
  

  NUMBER OF EQUATIONS =     1034     NUMBER OF FLOATING PT. OPERATIONS =  1.01E+06

  USING THE DIRECT SOLVER WITH   4 PROCESSORS

     CHECK POINT   START OF SOLVER    

     CHECK POINT  END OF SOLVER       

       ELAPSED USER TIME (SEC)      =   0.0000    
       ELAPSED SYSTEM TIME (SEC)    =   0.0000    
       ELAPSED TOTAL CPU TIME (SEC) =   0.0000    
       ELAPSED WALLCLOCK TIME (SEC) =          0
  
     ASYNCHRONOUS TRACKING ELEMENT LOOP STARTED
  

               CONVERGENCE CHECKS FOR EQUILIBRIUM ITERATION     1

   MAX. PENETRATION ERROR 1.15636E-09 AT NODE BASE-C.17 OF CONTACT PAIR 
   (ASSEMBLY_BASE-C_TOP-SUF-BASEC,ASSEMBLY_MERGED-BODY-1_SURF-BOT-MER)
   MAX. CONTACT FORCE ERROR 684.595E-12   AT NODE BASE-C.17 OF CONTACT PAIR 
   (ASSEMBLY_BASE-C_TOP-SUF-BASEC,ASSEMBLY_MERGED-BODY-1_SURF-BOT-MER)
          THE CONTACT CONSTRAINTS HAVE CONVERGED.

 AVERAGE FORCE                      9.817E-04   TIME AVG. FORCE       5.275E-04
 LARGEST RESIDUAL FORCE             2.352E-04   AT NODE        180   DOF  2
   INSTANCE: MERGED-BODY-1                                                                   
 LARGEST INCREMENT OF DISP.         0.108       AT NODE        376   DOF  1
   INSTANCE: MERGED-BODY-1                                                                   
 LARGEST CORRECTION TO DISP.       -7.499E-03   AT NODE         29   DOF  1
[...]
  
     ASYNCHRONOUS OUTPUT DATABASE FRAME FLUSH STARTED
  


  INCREMENT    36 STARTS. ATTEMPT NUMBER  1, TIME INCREMENT  0.116    
  
     ASYNCHRONOUS TRACKING ELEMENT LOOP STARTED
  

  NUMBER OF EQUATIONS =     1034     NUMBER OF FLOATING PT. OPERATIONS =  1.20E+06

  USING THE DIRECT SOLVER WITH   4 PROCESSORS

     CHECK POINT   START OF SOLVER    

     CHECK POINT  END OF SOLVER       

       ELAPSED USER TIME (SEC)      =  0.10000    
       ELAPSED SYSTEM TIME (SEC)    =   0.0000    
       ELAPSED TOTAL CPU TIME (SEC) =  0.10000    
       ELAPSED WALLCLOCK TIME (SEC) =          0
  
     ASYNCHRONOUS TRACKING ELEMENT LOOP STARTED
  

                    2 SEVERE DISCONTINUITIES OCCURRED DURING THIS ITERATION.
                    2 POINTS CHANGED FROM OPEN TO CLOSED

               CONVERGENCE CHECKS FOR SEVERE DISCONTINUITY ITERATION     1

   MAX. PENETRATION ERROR 6.75028E-03 AT NODE MERGED-BODY-1.110 OF CONTACT PAIR 
   (ASSEMBLY_SURF-CONTACT,ASSEMBLY_SURF-CONTACT)
   MAX. CONTACT FORCE ERROR 37.2838E-03  AT NODE MERGED-BODY-1.110 OF CONTACT 
   PAIR (ASSEMBLY_SURF-CONTACT,ASSEMBLY_SURF-CONTACT)
          PENETRATION ERROR TOO LARGE COMPARED TO DISPLACEMENT INCREMENT.

 AVERAGE FORCE                      4.977E-03   TIME AVG. FORCE       2.366E-03
 LARGEST RESIDUAL FORCE             2.492E-03   AT NODE        180   DOF  2
   INSTANCE: MERGED-BODY-1                                                                   
 LARGEST INCREMENT OF DISP.         0.403       AT NODE        105   DOF  1
   INSTANCE: MERGED-BODY-1                                                                   
 LARGEST CORRECTION TO DISP.       -3.384E-02   AT NODE         33   DOF  1
   INSTANCE: MERGED-BODY-1                                                                   
          FORCE     EQUILIBRIUM NOT ACHIEVED WITHIN TOLERANCE.

  NUMBER OF EQUATIONS =     1034     NUMBER OF FLOATING PT. OPERATIONS =  1.22E+06

  USING THE DIRECT SOLVER WITH   4 PROCESSORS

     CHECK POINT   START OF SOLVER    

     CHECK POINT  END OF SOLVER       

       ELAPSED USER TIME (SEC)      =   0.0000    
       ELAPSED SYSTEM TIME (SEC)    =   0.0000    
       ELAPSED TOTAL CPU TIME (SEC) =   0.0000    
       ELAPSED WALLCLOCK TIME (SEC) =          0
  
     ASYNCHRONOUS TRACKING ELEMENT LOOP STARTED
  

               CONVERGENCE CHECKS FOR EQUILIBRIUM ITERATION     1

   MAX. PENETRATION ERROR 21.4400E-06  AT NODE MERGED-BODY-1.109 OF CONTACT 
   PAIR (ASSEMBLY_SURF-CONTACT,ASSEMBLY_SURF-CONTACT)
   MAX. CONTACT FORCE ERROR 137.965E-06   AT NODE MERGED-BODY-1.109 OF CONTACT 
   PAIR (ASSEMBLY_SURF-CONTACT,ASSEMBLY_SURF-CONTACT)
          THE CONTACT CONSTRAINTS HAVE CONVERGED.

 AVERAGE FORCE                      5.096E-03   TIME AVG. FORCE       2.369E-03
 LARGEST RESIDUAL FORCE            -8.016E-04   AT NODE        183   DOF  2
   INSTANCE: MERGED-BODY-1                                                                   
 LARGEST INCREMENT OF DISP.         0.395       AT NODE        105   DOF  1
   INSTANCE: MERGED-BODY-1                                                                   
 LARGEST CORRECTION TO DISP.        2.377E-02   AT NODE         33   DOF  1
   INSTANCE: MERGED-BODY-1                                                                   
          FORCE     EQUILIBRIUM NOT ACHIEVED WITHIN TOLERANCE.

  NUMBER OF EQUATIONS =     1034     NUMBER OF FLOATING PT. OPERATIONS =  1.22E+06

  USING THE DIRECT SOLVER WITH   4 PROCESSORS

     CHECK POINT   START OF SOLVER    

     CHECK POINT  END OF SOLVER       

       ELAPSED USER TIME (SEC)      =  0.10000    
       ELAPSED SYSTEM TIME (SEC)    =   0.0000    
       ELAPSED TOTAL CPU TIME (SEC) =  0.10000    
       ELAPSED WALLCLOCK TIME (SEC) =          0
  
     ASYNCHRONOUS TRACKING ELEMENT LOOP STARTED
  

               CONVERGENCE CHECKS FOR EQUILIBRIUM ITERATION     2

   MAX. PENETRATION ERROR -46.5190E-09  AT NODE MERGED-BODY-1.109 OF CONTACT 
   PAIR (ASSEMBLY_SURF-CONTACT,ASSEMBLY_SURF-CONTACT)
   MAX. CONTACT FORCE ERROR -299.338E-09   AT NODE MERGED-BODY-1.109 OF CONTACT 
   PAIR (ASSEMBLY_SURF-CONTACT,ASSEMBLY_SURF-CONTACT)
          THE CONTACT CONSTRAINTS HAVE CONVERGED.

 AVERAGE FORCE                      5.204E-03   TIME AVG. FORCE       2.372E-03
 LARGEST RESIDUAL FORCE            -3.971E-06   AT NODE        178   DOF  1
   INSTANCE: MERGED-BODY-1                                                                   
 LARGEST INCREMENT OF DISP.         0.395       AT NODE        105   DOF  1
   INSTANCE: MERGED-BODY-1                                                                   
 LARGEST CORRECTION TO DISP.       -6.025E-04   AT NODE         34   DOF  1
   INSTANCE: MERGED-BODY-1                                                                   
          THE FORCE     EQUILIBRIUM EQUATIONS HAVE CONVERGED
          TIME INCREMENT MAY NOW INCREASE TO    0.174    

 ITERATION SUMMARY FOR THE INCREMENT:   3 TOTAL ITERATIONS, OF WHICH
   1 ARE SEVERE DISCONTINUITY ITERATIONS AND  2 ARE EQUILIBRIUM ITERATIONS.

 TIME INCREMENT COMPLETED  0.116    ,  FRACTION OF STEP COMPLETED  0.557    
 STEP TIME COMPLETED       0.557    ,  TOTAL TIME COMPLETED        0.557    
  
     ASYNCHRONOUS OUTPUT DATABASE FRAME FLUSH STARTED
  


  INCREMENT    37 STARTS. ATTEMPT NUMBER  1, TIME INCREMENT  0.174    
  
     ASYNCHRONOUS TRACKING ELEMENT LOOP STARTED
  

  NUMBER OF EQUATIONS =     1034     NUMBER OF FLOATING PT. OPERATIONS =  1.22E+06

  USING THE DIRECT SOLVER WITH   4 PROCESSORS

     CHECK POINT   START OF SOLVER    

     CHECK POINT  END OF SOLVER       

       ELAPSED USER TIME (SEC)      =   0.0000    
       ELAPSED SYSTEM TIME (SEC)    =  0.10000    
       ELAPSED TOTAL CPU TIME (SEC) =  0.10000    
       ELAPSED WALLCLOCK TIME (SEC) =          0
  
     ASYNCHRONOUS TRACKING ELEMENT LOOP STARTED
  

               CONVERGENCE CHECKS FOR EQUILIBRIUM ITERATION     1

   MAX. PENETRATION ERROR -255.206E-06   AT NODE MERGED-BODY-1.388 OF CONTACT 
   PAIR (ASSEMBLY_SURF-CONTACT,ASSEMBLY_SURF-CONTACT)
   MAX. CONTACT FORCE ERROR -1.51878E-03 AT NODE MERGED-BODY-1.388 OF CONTACT 
   PAIR (ASSEMBLY_SURF-CONTACT,ASSEMBLY_SURF-CONTACT)
          THE CONTACT CONSTRAINTS HAVE CONVERGED.

 AVERAGE FORCE                      6.238E-03   TIME AVG. FORCE       2.477E-03
 LARGEST RESIDUAL FORCE             1.420E-02   AT NODE        180   DOF  2
   INSTANCE: MERGED-BODY-1                                                                   
 LARGEST INCREMENT OF DISP.         0.546       AT NODE        105   DOF  1
   INSTANCE: MERGED-BODY-1                                                                   
 LARGEST CORRECTION TO DISP.        5.818E-02   AT NODE         38   DOF  1
   INSTANCE: MERGED-BODY-1                                                                   
          FORCE     EQUILIBRIUM NOT ACHIEVED WITHIN TOLERANCE.

  NUMBER OF EQUATIONS =     1034     NUMBER OF FLOATING PT. OPERATIONS =  1.22E+06

  USING THE DIRECT SOLVER WITH   4 PROCESSORS

     CHECK POINT   START OF SOLVER    

     CHECK POINT  END OF SOLVER       

       ELAPSED USER TIME (SEC)      =  0.10000    
       ELAPSED SYSTEM TIME (SEC)    =   0.0000    
       ELAPSED TOTAL CPU TIME (SEC) =  0.10000    
       ELAPSED WALLCLOCK TIME (SEC) =          0
  
     ASYNCHRONOUS TRACKING ELEMENT LOOP STARTED
  

               CONVERGENCE CHECKS FOR EQUILIBRIUM ITERATION     2

   MAX. PENETRATION ERROR 54.0393E-06  AT NODE MERGED-BODY-1.109 OF CONTACT 
   PAIR (ASSEMBLY_SURF-CONTACT,ASSEMBLY_SURF-CONTACT)
   MAX. CONTACT FORCE ERROR 360.645E-06   AT NODE MERGED-BODY-1.109 OF CONTACT 
   PAIR (ASSEMBLY_SURF-CONTACT,ASSEMBLY_SURF-CONTACT)
          THE CONTACT CONSTRAINTS HAVE CONVERGED.

 AVERAGE FORCE                      6.652E-03   TIME AVG. FORCE       2.488E-03
 LARGEST RESIDUAL FORCE            -1.694E-04   AT NODE        183   DOF  2
   INSTANCE: MERGED-BODY-1                                                                   
 LARGEST INCREMENT OF DISP.         0.541       AT NODE        105   DOF  1
   INSTANCE: MERGED-BODY-1                                                                   
 LARGEST CORRECTION TO DISP.       -5.804E-03   AT NODE        105   DOF  1
   INSTANCE: MERGED-BODY-1                                                                   
          FORCE     EQUILIBRIUM NOT ACHIEVED WITHIN TOLERANCE.

  NUMBER OF EQUATIONS =     1034     NUMBER OF FLOATING PT. OPERATIONS =  1.22E+06

  USING THE DIRECT SOLVER WITH   4 PROCESSORS

     CHECK POINT   START OF SOLVER    

     CHECK POINT  END OF SOLVER       

       ELAPSED USER TIME (SEC)      =  0.10000    
       ELAPSED SYSTEM TIME (SEC)    =   0.0000    
       ELAPSED TOTAL CPU TIME (SEC) =  0.10000    
       ELAPSED WALLCLOCK TIME (SEC) =          0
  
     ASYNCHRONOUS TRACKING ELEMENT LOOP STARTED
  

               CONVERGENCE CHECKS FOR EQUILIBRIUM ITERATION     3

   MAX. PENETRATION ERROR -4.10551E-09 AT NODE MERGED-BODY-1.109 OF CONTACT 
   PAIR (ASSEMBLY_SURF-CONTACT,ASSEMBLY_SURF-CONTACT)
   MAX. CONTACT FORCE ERROR -27.3992E-09  AT NODE MERGED-BODY-1.109 OF CONTACT 
   PAIR (ASSEMBLY_SURF-CONTACT,ASSEMBLY_SURF-CONTACT)
          THE CONTACT CONSTRAINTS HAVE CONVERGED.

 AVERAGE FORCE                      6.748E-03   TIME AVG. FORCE       2.490E-03
 LARGEST RESIDUAL FORCE             1.433E-06   AT NODE        109   DOF  1
   INSTANCE: MERGED-BODY-1                                                                   
 LARGEST INCREMENT OF DISP.         0.541       AT NODE        105   DOF  1
   INSTANCE: MERGED-BODY-1                                                                   
 LARGEST CORRECTION TO DISP.       -2.373E-04   AT NODE         33   DOF  1
   INSTANCE: MERGED-BODY-1                                                                   
          THE FORCE     EQUILIBRIUM EQUATIONS HAVE CONVERGED
          TIME INCREMENT MAY NOW INCREASE TO    0.260    

 ITERATION SUMMARY FOR THE INCREMENT:   3 TOTAL ITERATIONS, OF WHICH
   0 ARE SEVERE DISCONTINUITY ITERATIONS AND  3 ARE EQUILIBRIUM ITERATIONS.

 TIME INCREMENT COMPLETED  0.174    ,  FRACTION OF STEP COMPLETED  0.731    
 STEP TIME COMPLETED       0.731    ,  TOTAL TIME COMPLETED        0.731    
  
     ASYNCHRONOUS OUTPUT DATABASE FRAME FLUSH STARTED
  


  INCREMENT    38 STARTS. ATTEMPT NUMBER  1, TIME INCREMENT  0.260    
  
     ASYNCHRONOUS TRACKING ELEMENT LOOP STARTED
  

  NUMBER OF EQUATIONS =     1034     NUMBER OF FLOATING PT. OPERATIONS =  1.22E+06

  USING THE DIRECT SOLVER WITH   4 PROCESSORS

     CHECK POINT   START OF SOLVER    

     CHECK POINT  END OF SOLVER       

       ELAPSED USER TIME (SEC)      =  0.10000    
       ELAPSED SYSTEM TIME (SEC)    =   0.0000    
       ELAPSED TOTAL CPU TIME (SEC) =  0.10000    
       ELAPSED WALLCLOCK TIME (SEC) =          0
  
     ASYNCHRONOUS TRACKING ELEMENT LOOP STARTED
  

               CONVERGENCE CHECKS FOR EQUILIBRIUM ITERATION     1

   MAX. PENETRATION ERROR 67.7105E-06  AT NODE MERGED-BODY-1.110 OF CONTACT 
   PAIR (ASSEMBLY_SURF-CONTACT,ASSEMBLY_SURF-CONTACT)
   MAX. CONTACT FORCE ERROR 395.996E-06   AT NODE MERGED-BODY-1.117 OF CONTACT 
   PAIR (ASSEMBLY_SURF-CONTACT,ASSEMBLY_SURF-CONTACT)
          THE CONTACT CONSTRAINTS HAVE CONVERGED.

 AVERAGE FORCE                      8.503E-03   TIME AVG. FORCE       2.649E-03
 LARGEST RESIDUAL FORCE            -4.541E-03   AT NODE        175   DOF  2
   INSTANCE: MERGED-BODY-1                                                                   
 LARGEST INCREMENT OF DISP.         0.784       AT NODE        375   DOF  1
   INSTANCE: MERGED-BODY-1                                                                   
 LARGEST CORRECTION TO DISP.       -6.419E-02   AT NODE         33   DOF  1
   INSTANCE: MERGED-BODY-1                                                                   
          FORCE     EQUILIBRIUM NOT ACHIEVED WITHIN TOLERANCE.

  NUMBER OF EQUATIONS =     1034     NUMBER OF FLOATING PT. OPERATIONS =  1.22E+06

  USING THE DIRECT SOLVER WITH   4 PROCESSORS

     CHECK POINT   START OF SOLVER    

     CHECK POINT  END OF SOLVER       

       ELAPSED USER TIME (SEC)      =  0.10000    
       ELAPSED SYSTEM TIME (SEC)    =   0.0000    
       ELAPSED TOTAL CPU TIME (SEC) =  0.10000    
       ELAPSED WALLCLOCK TIME (SEC) =          0
  
     ASYNCHRONOUS TRACKING ELEMENT LOOP STARTED
  

               CONVERGENCE CHECKS FOR EQUILIBRIUM ITERATION     2

   MAX. PENETRATION ERROR 426.538E-09   AT NODE MERGED-BODY-1.110 OF CONTACT 
   PAIR (ASSEMBLY_SURF-CONTACT,ASSEMBLY_SURF-CONTACT)
   MAX. CONTACT FORCE ERROR 2.49270E-06 AT NODE MERGED-BODY-1.110 OF CONTACT 
   PAIR (ASSEMBLY_SURF-CONTACT,ASSEMBLY_SURF-CONTACT)
          THE CONTACT CONSTRAINTS HAVE CONVERGED.

 AVERAGE FORCE                      9.070E-03   TIME AVG. FORCE       2.664E-03
 LARGEST RESIDUAL FORCE            -2.179E-04   AT NODE        179   DOF  2
   INSTANCE: MERGED-BODY-1                                                                   
 LARGEST INCREMENT OF DISP.         0.777       AT NODE        375   DOF  1
   INSTANCE: MERGED-BODY-1                                                                   
 LARGEST CORRECTION TO DISP.       -6.627E-03   AT NODE        105   DOF  1
   INSTANCE: MERGED-BODY-1                                                                   
          FORCE     EQUILIBRIUM NOT ACHIEVED WITHIN TOLERANCE.

  NUMBER OF EQUATIONS =     1034     NUMBER OF FLOATING PT. OPERATIONS =  1.22E+06

  USING THE DIRECT SOLVER WITH   4 PROCESSORS

     CHECK POINT   START OF SOLVER    

     CHECK POINT  END OF SOLVER       

       ELAPSED USER TIME (SEC)      =  0.10000    
       ELAPSED SYSTEM TIME (SEC)    =   0.0000    
       ELAPSED TOTAL CPU TIME (SEC) =  0.10000    
       ELAPSED WALLCLOCK TIME (SEC) =          1
  
     ASYNCHRONOUS TRACKING ELEMENT LOOP STARTED
  

               CONVERGENCE CHECKS FOR EQUILIBRIUM ITERATION     3

   MAX. PENETRATION ERROR -1.82617E-09 AT NODE MERGED-BODY-1.109 OF CONTACT 
   PAIR (ASSEMBLY_SURF-CONTACT,ASSEMBLY_SURF-CONTACT)
   MAX. CONTACT FORCE ERROR -12.9020E-09  AT NODE MERGED-BODY-1.109 OF CONTACT 
   PAIR (ASSEMBLY_SURF-CONTACT,ASSEMBLY_SURF-CONTACT)
          THE CONTACT CONSTRAINTS HAVE CONVERGED.

 AVERAGE FORCE                      9.201E-03   TIME AVG. FORCE       2.667E-03
 LARGEST RESIDUAL FORCE             2.389E-06   AT NODE        182   DOF  2
   INSTANCE: MERGED-BODY-1                                                                   
 LARGEST INCREMENT OF DISP.         0.777       AT NODE        375   DOF  1
   INSTANCE: MERGED-BODY-1                                                                   
 LARGEST CORRECTION TO DISP.       -1.802E-05   AT NODE         34   DOF  1
   INSTANCE: MERGED-BODY-1                                                                   
          THE FORCE     EQUILIBRIUM EQUATIONS HAVE CONVERGED

 ITERATION SUMMARY FOR THE INCREMENT:   3 TOTAL ITERATIONS, OF WHICH
   0 ARE SEVERE DISCONTINUITY ITERATIONS AND  3 ARE EQUILIBRIUM ITERATIONS.

 TIME INCREMENT COMPLETED  0.260    ,  FRACTION OF STEP COMPLETED  0.991    
 STEP TIME COMPLETED       0.991    ,  TOTAL TIME COMPLETED        0.991    
  
     ASYNCHRONOUS OUTPUT DATABASE FRAME FLUSH STARTED
  


  INCREMENT    39 STARTS. ATTEMPT NUMBER  1, TIME INCREMENT  9.121E-03
  
     ASYNCHRONOUS TRACKING ELEMENT LOOP STARTED
  

  NUMBER OF EQUATIONS =     1034     NUMBER OF FLOATING PT. OPERATIONS =  1.22E+06

  USING THE DIRECT SOLVER WITH   4 PROCESSORS

     CHECK POINT   START OF SOLVER    

     CHECK POINT  END OF SOLVER       

       ELAPSED USER TIME (SEC)      =  0.10000    
       ELAPSED SYSTEM TIME (SEC)    =   0.0000    
       ELAPSED TOTAL CPU TIME (SEC) =  0.10000    
       ELAPSED WALLCLOCK TIME (SEC) =          0
  
     ASYNCHRONOUS TRACKING ELEMENT LOOP STARTED
  

               CONVERGENCE CHECKS FOR EQUILIBRIUM ITERATION     1

   MAX. PENETRATION ERROR -260.142E-09   AT NODE MERGED-BODY-1.109 OF CONTACT 
   PAIR (ASSEMBLY_SURF-CONTACT,ASSEMBLY_SURF-CONTACT)
   MAX. CONTACT FORCE ERROR -1.84137E-06 AT NODE MERGED-BODY-1.109 OF CONTACT 
   PAIR (ASSEMBLY_SURF-CONTACT,ASSEMBLY_SURF-CONTACT)
          THE CONTACT CONSTRAINTS HAVE CONVERGED.

 AVERAGE FORCE                      9.239E-03   TIME AVG. FORCE       2.835E-03
 LARGEST RESIDUAL FORCE            -4.203E-05   AT NODE        183   DOF  2
   INSTANCE: MERGED-BODY-1                                                                   
 LARGEST INCREMENT OF DISP.         2.254E-02   AT NODE        105   DOF  1
   INSTANCE: MERGED-BODY-1                                                                   
 LARGEST CORRECTION TO DISP.       -5.566E-03   AT NODE        294   DOF  1
   INSTANCE: MERGED-BODY-1                                                                   
          FORCE     EQUILIBRIUM NOT ACHIEVED WITHIN TOLERANCE.

  NUMBER OF EQUATIONS =     1034     NUMBER OF FLOATING PT. OPERATIONS =  1.22E+06

  USING THE DIRECT SOLVER WITH   4 PROCESSORS

     CHECK POINT   START OF SOLVER    

     CHECK POINT  END OF SOLVER       

       ELAPSED USER TIME (SEC)      =   0.0000    
       ELAPSED SYSTEM TIME (SEC)    =   0.0000    
       ELAPSED TOTAL CPU TIME (SEC) =   0.0000    
       ELAPSED WALLCLOCK TIME (SEC) =          0
  
     ASYNCHRONOUS TRACKING ELEMENT LOOP STARTED
  

               CONVERGENCE CHECKS FOR EQUILIBRIUM ITERATION     2

   MAX. PENETRATION ERROR -731.492E-12   AT NODE MERGED-BODY-1.109 OF CONTACT 
   PAIR (ASSEMBLY_SURF-CONTACT,ASSEMBLY_SURF-CONTACT)
   MAX. CONTACT FORCE ERROR -5.17774E-09 AT NODE MERGED-BODY-1.109 OF CONTACT 
   PAIR (ASSEMBLY_SURF-CONTACT,ASSEMBLY_SURF-CONTACT)
          THE CONTACT CONSTRAINTS HAVE CONVERGED.

 AVERAGE FORCE                      9.319E-03   TIME AVG. FORCE       2.838E-03
 LARGEST RESIDUAL FORCE            -1.891E-08   AT NODE        178   DOF  1
   INSTANCE: MERGED-BODY-1                                                                   
 LARGEST INCREMENT OF DISP.         2.252E-02   AT NODE        105   DOF  1
   INSTANCE: MERGED-BODY-1                                                                   
 LARGEST CORRECTION TO DISP.       -2.378E-05   AT NODE        375   DOF  1
   INSTANCE: MERGED-BODY-1                                                                   
          THE FORCE     EQUILIBRIUM EQUATIONS HAVE CONVERGED

 ITERATION SUMMARY FOR THE INCREMENT:   2 TOTAL ITERATIONS, OF WHICH
   0 ARE SEVERE DISCONTINUITY ITERATIONS AND  2 ARE EQUILIBRIUM ITERATIONS.

 TIME INCREMENT COMPLETED  9.121E-03,  FRACTION OF STEP COMPLETED   1.00    
 STEP TIME COMPLETED        1.00    ,  TOTAL TIME COMPLETED         1.00    


          THE ANALYSIS HAS BEEN COMPLETED



     ANALYSIS SUMMARY:
     TOTAL OF         39  INCREMENTS
                      11  CUTBACKS IN AUTOMATIC INCREMENTATION
                     155  ITERATIONS INCLUDING CONTACT ITERATIONS IF PRESENT
                     155  PASSES THROUGH THE EQUATION SOLVER OF WHICH 
                     155  INVOLVE MATRIX DECOMPOSITION, INCLUDING
                       0  DECOMPOSITION(S) OF THE MASS MATRIX
                       1  REORDERING OF EQUATIONS TO MINIMIZE WAVEFRONT
                       0  ADDITIONAL RESIDUAL EVALUATIONS FOR LINE SEARCHES
                       0  ADDITIONAL OPERATOR EVALUATIONS FOR LINE SEARCHES
                       5  WARNING MESSAGES DURING USER INPUT PROCESSING
                      39  WARNING MESSAGES DURING ANALYSIS
                       0  ANALYSIS WARNINGS ARE NUMERICAL PROBLEM MESSAGES
                      37  ANALYSIS WARNINGS ARE NEGATIVE EIGENVALUE MESSAGES
                       0  ERROR MESSAGES



     JOB TIME SUMMARY
       USER TIME (SEC)      =   29.900    
       SYSTEM TIME (SEC)    =   6.7000    
       TOTAL CPU TIME (SEC) =   36.600    
       WALLCLOCK TIME (SEC) =         28
